gem5 Simulator System.  http://gem5.org
gem5 is copyrighted software; use the --copyright option for details.

gem5 compiled Nov  8 2018 11:09:10
gem5 started Nov 20 2018 23:05:51
gem5 executing on debian-virtual, pid 1300
command line: gem5/build/ALPHA/gem5.opt mygem5script_2.py --my-config=basic --my-bpred=LocalBP -c automotive/basicmath/basicmath_mini

Global frequency set at 1000000000000 ticks per second
********* CUBIC FUNCTIONS ***********
Solutions: 2.000000 6.000000 2.500000
Solutions: 2.500000
Solutions: 1.635838
Solutions: 13.811084
Solutions [1.000000,10.000000,5.000000,-1.000000]: -9.460302 0.152671 -0.692369
Solutions [1.000000,10.000000,5.000000,-2.000000]: -9.448407 0.260617 -0.812210
Solutions [1.000000,10.000000,5.000000,-3.000000]: -9.436449 0.348553 -0.912103
Solutions [1.000000,10.000000,5.500000,-1.000000]: -9.403823 0.143722 -0.739899
Solutions [1.000000,10.000000,5.500000,-2.000000]: -9.391702 0.248536 -0.856834
Solutions [1.000000,10.000000,5.500000,-3.000000]: -9.379515 0.334813 -0.955298
Solutions [1.000000,10.000000,6.000000,-1.000000]: -9.346609 0.135604 -0.788995
Solutions [1.000000,10.000000,6.000000,-2.000000]: -9.334251 0.237275 -0.903023
Solutions [1.000000,10.000000,6.000000,-3.000000]: -9.321825 0.321825 -1.000000
Solutions [1.000000,9.000000,5.000000,-1.000000]: -8.389834 0.155642 -0.765808
Solutions [1.000000,9.000000,5.000000,-2.000000]: -8.374426 0.267435 -0.893009
Solutions [1.000000,9.000000,5.000000,-3.000000]: -8.358899 0.358899 -1.000000
Solutions [1.000000,9.000000,5.500000,-1.000000]: -8.324902 0.146249 -0.821347
Solutions [1.000000,9.000000,5.500000,-2.000000]: -8.309108 0.254581 -0.945474
Solutions [1.000000,9.000000,5.500000,-3.000000]: -8.293186 0.344188 -1.051003
Solutions [1.000000,9.000000,6.000000,-1.000000]: -8.258845 0.137763 -0.878918
Solutions [1.000000,9.000000,6.000000,-2.000000]: -8.242641 0.242641 -1.000000
Solutions [1.000000,9.000000,6.000000,-3.000000]: -8.226301 0.330323 -1.104022
Solutions [1.000000,8.000000,5.000000,-1.000000]: -7.295897 0.158834 -0.862937
Solutions [1.000000,8.000000,5.000000,-2.000000]: -7.274917 0.274917 -1.000000
Solutions [1.000000,8.000000,5.000000,-3.000000]: -7.253677 0.370366 -1.116688
Solutions [1.000000,8.000000,5.500000,-1.000000]: -7.218925 0.148948 -0.930023
Solutions [1.000000,8.000000,5.500000,-2.000000]: -7.197204 0.261177 -1.063973
Solutions [1.000000,8.000000,5.500000,-3.000000]: -7.175200 0.354529 -1.179330
Solutions [1.000000,8.000000,6.000000,-1.000000]: -7.140055 0.140055 -1.000000
Solutions [1.000000,8.000000,6.000000,-2.000000]: -7.117532 0.248464 -1.130933
Solutions [1.000000,8.000000,6.000000,-3.000000]: -7.094697 0.339652 -1.244955
Solutions [2.000000,10.000000,5.000000,-1.000000]: -4.406972 0.152237 -0.745264
Solutions [2.000000,10.000000,5.000000,-2.000000]: -4.376569 0.258947 -0.882378
Solutions [2.000000,10.000000,5.000000,-3.000000]: -4.345208 0.345208 -1.000000
Solutions [2.000000,10.000000,5.500000,-1.000000]: -4.339779 0.143373 -0.803594
Solutions [2.000000,10.000000,5.500000,-2.000000]: -4.307722 0.247118 -0.939396
Solutions [2.000000,10.000000,5.500000,-3.000000]: -4.274567 0.331888 -1.057322
Solutions [2.000000,10.000000,6.000000,-1.000000]: -4.270001 0.135321 -0.865320
Solutions [2.000000,10.000000,6.000000,-2.000000]: -4.236068 0.236068 -1.000000
Solutions [2.000000,10.000000,6.000000,-3.000000]: -4.200862 0.319267 -1.118405
Solutions [2.000000,9.000000,5.000000,-1.000000]: -3.809244 0.155167 -0.845924
Solutions [2.000000,9.000000,5.000000,-2.000000]: -3.765564 0.265564 -1.000000
Solutions [2.000000,9.000000,5.000000,-3.000000]: -3.719426 0.355107 -1.135681
Solutions [2.000000,9.000000,5.500000,-1.000000]: -3.725908 0.145871 -0.919963
Solutions [2.000000,9.000000,5.500000,-2.000000]: -3.678514 0.253003 -1.074489
Solutions [2.000000,9.000000,5.500000,-3.000000]: -3.628062 0.340892 -1.212829
Solutions [2.000000,9.000000,6.000000,-1.000000]: -3.637459 0.137459 -1.000000
Solutions [2.000000,9.000000,6.000000,-2.000000]: -3.585515 0.241306 -1.155792
Solutions [2.000000,9.000000,6.000000,-3.000000]: -3.529660 0.327455 -1.297795
Solutions [2.000000,8.000000,5.000000,-1.000000]: -3.158312 0.158312 -1.000000
Solutions [2.000000,8.000000,5.000000,-2.000000]: -3.084334 0.272804 -1.188470
Solutions [2.000000,8.000000,5.000000,-3.000000]: -3.000000 0.366025 -1.366025
Solutions [2.000000,8.000000,5.500000,-1.000000]: -3.041936 0.148535 -1.106599
Solutions [2.000000,8.000000,5.500000,-2.000000]: -2.954758 0.259408 -1.304650
Solutions [2.000000,8.000000,5.500000,-3.000000]: -2.850781 0.350781 -1.500000
Solutions [2.000000,8.000000,6.000000,-1.000000]: -2.910045 0.139726 -1.229681
Solutions [2.000000,8.000000,6.000000,-2.000000]: -2.801938 0.246980 -1.445042
Solutions [2.000000,8.000000,6.000000,-3.000000]: -2.660442 0.336412 -1.675970
Solutions [3.000000,10.000000,5.000000,-1.000000]: -2.659529 0.151809 -0.825613
Solutions [3.000000,10.000000,5.000000,-2.000000]: -2.590667 0.257334 -1.000000
Solutions [3.000000,10.000000,5.000000,-3.000000]: -2.510977 0.342028 -1.164384
Solutions [3.000000,10.000000,5.500000,-1.000000]: -2.569277 0.143028 -0.907084
Solutions [3.000000,10.000000,5.500000,-2.000000]: -2.489239 0.245743 -1.089837
Solutions [3.000000,10.000000,5.500000,-3.000000]: -2.392216 0.329096 -1.270213
Solutions [3.000000,10.000000,6.000000,-1.000000]: -2.468375 0.135042 -1.000000
Solutions [3.000000,10.000000,6.000000,-2.000000]: -2.371401 0.234894 -1.196827
Solutions [3.000000,10.000000,6.000000,-3.000000]: -2.242776 0.316815 -1.407372
Solutions [3.000000,9.000000,5.000000,-1.000000]: -2.154701 0.154701 -1.000000
Solutions [3.000000,9.000000,5.000000,-2.000000]: -2.000000 0.263763 -1.263763
Solutions [3.000000,9.000000,5.000000,-3.000000]: 0.351520
Solutions [3.000000,9.000000,5.500000,-1.000000]: -2.000000 0.145497 -1.145497
Solutions [3.000000,9.000000,5.500000,-2.000000]: 0.251477
Solutions [3.000000,9.000000,5.500000,-3.000000]: 0.337759
Solutions [3.000000,9.000000,6.000000,-1.000000]: -1.742227 0.137158 -1.394931
Solutions [3.000000,9.000000,6.000000,-2.000000]: 0.240012
Solutions [3.000000,9.000000,6.000000,-3.000000]: 0.324718
Solutions [3.000000,8.000000,5.000000,-1.000000]: 0.157801
Solutions [3.000000,8.000000,5.000000,-2.000000]: 0.270776
Solutions [3.000000,8.000000,5.000000,-3.000000]: 0.361944
Solutions [3.000000,8.000000,5.500000,-1.000000]: 0.148129
Solutions [3.000000,8.000000,5.500000,-2.000000]: 0.257703
Solutions [3.000000,8.000000,5.500000,-3.000000]: 0.347237
Solutions [3.000000,8.000000,6.000000,-1.000000]: 0.139402
Solutions [3.000000,8.000000,6.000000,-2.000000]: 0.245543
Solutions [3.000000,8.000000,6.000000,-3.000000]: 0.333333
********* INTEGER SQR ROOTS ***********
sqrt(  0) =  0
sqrt(  1) = 65536
sqrt(  2) = 92681
sqrt(  3) = 113511
sqrt(  4) = 131072
sqrt(  5) = 146542
sqrt(  6) = 160529
sqrt(  7) = 173391
sqrt(  8) = 185363
sqrt(  9) = 196608
sqrt( 10) = 207243
sqrt( 11) = 217358
sqrt( 12) = 227023
sqrt( 13) = 236293
sqrt( 14) = 245213
sqrt( 15) = 253819
sqrt( 16) = 262144
sqrt( 17) = 270211
sqrt( 18) = 278045
sqrt( 19) = 285664
sqrt( 20) = 293085
sqrt( 21) = 300323
sqrt( 22) = 307391
sqrt( 23) = 314299
sqrt( 24) = 321059
sqrt( 25) = 327680
sqrt( 26) = 334169
sqrt( 27) = 340535
sqrt( 28) = 346783
sqrt( 29) = 352922
sqrt( 30) = 358955
sqrt( 31) = 364889
sqrt( 32) = 370727
sqrt( 33) = 376475
sqrt( 34) = 382137
sqrt( 35) = 387716
sqrt( 36) = 393216
sqrt( 37) = 398639
sqrt( 38) = 403991
sqrt( 39) = 409272
sqrt( 40) = 414486
sqrt( 41) = 419635
sqrt( 42) = 424721
sqrt( 43) = 429748
sqrt( 44) = 434716
sqrt( 45) = 439628
sqrt( 46) = 444486
sqrt( 47) = 449292
sqrt( 48) = 454046
sqrt( 49) = 458752
sqrt( 50) = 463409
sqrt( 51) = 468020
sqrt( 52) = 472586
sqrt( 53) = 477109
sqrt( 54) = 481589
sqrt( 55) = 486027
sqrt( 56) = 490426
sqrt( 57) = 494785
sqrt( 58) = 499107
sqrt( 59) = 503391
sqrt( 60) = 507639
sqrt( 61) = 511852
sqrt( 62) = 516030
sqrt( 63) = 520175
sqrt( 64) = 524288
sqrt( 65) = 528368
sqrt( 66) = 532416
sqrt( 67) = 536435
sqrt( 68) = 540423
sqrt( 69) = 544382
sqrt( 70) = 548313
sqrt( 71) = 552216
sqrt( 72) = 556091
sqrt( 73) = 559939
sqrt( 74) = 563761
sqrt( 75) = 567558
sqrt( 76) = 571329
sqrt( 77) = 575076
sqrt( 78) = 578798
sqrt( 79) = 582496
sqrt( 80) = 586171
sqrt( 81) = 589824
sqrt( 82) = 593453
sqrt( 83) = 597061
sqrt( 84) = 600647
sqrt( 85) = 604212
sqrt( 86) = 607755
sqrt( 87) = 611279
sqrt( 88) = 614782
sqrt( 89) = 618265
sqrt( 90) = 621729
sqrt( 91) = 625173
sqrt( 92) = 628599
sqrt( 93) = 632006
sqrt( 94) = 635395
sqrt( 95) = 638765
sqrt( 96) = 642119
sqrt( 97) = 645454
sqrt( 98) = 648773
sqrt( 99) = 652074
********* ANGLE CONVERSION ***********
  0 degrees = 0.000000000000 radians
  5 degrees = 0.087266462600 radians
 10 degrees = 0.174532925199 radians
 15 degrees = 0.261799387799 radians
 20 degrees = 0.349065850399 radians
 25 degrees = 0.436332312999 radians
 30 degrees = 0.523598775598 radians
 35 degrees = 0.610865238198 radians
 40 degrees = 0.698131700798 radians
 45 degrees = 0.785398163397 radians
 50 degrees = 0.872664625997 radians
 55 degrees = 0.959931088597 radians
 60 degrees = 1.047197551197 radians
 65 degrees = 1.134464013796 radians
 70 degrees = 1.221730476396 radians
 75 degrees = 1.308996938996 radians
 80 degrees = 1.396263401595 radians
 85 degrees = 1.483529864195 radians
 90 degrees = 1.570796326795 radians
 95 degrees = 1.658062789395 radians
100 degrees = 1.745329251994 radians
105 degrees = 1.832595714594 radians
110 degrees = 1.919862177194 radians
115 degrees = 2.007128639793 radians
120 degrees = 2.094395102393 radians
125 degrees = 2.181661564993 radians
130 degrees = 2.268928027593 radians
135 degrees = 2.356194490192 radians
140 degrees = 2.443460952792 radians
145 degrees = 2.530727415392 radians
150 degrees = 2.617993877991 radians
155 degrees = 2.705260340591 radians
160 degrees = 2.792526803191 radians
165 degrees = 2.879793265791 radians
170 degrees = 2.967059728390 radians
175 degrees = 3.054326190990 radians
180 degrees = 3.141592653590 radians
185 degrees = 3.228859116190 radians
190 degrees = 3.316125578789 radians
195 degrees = 3.403392041389 radians
200 degrees = 3.490658503989 radians
205 degrees = 3.577924966588 radians
210 degrees = 3.665191429188 radians
215 degrees = 3.752457891788 radians
220 degrees = 3.839724354388 radians
225 degrees = 3.926990816987 radians
230 degrees = 4.014257279587 radians
235 degrees = 4.101523742187 radians
240 degrees = 4.188790204786 radians
245 degrees = 4.276056667386 radians
250 degrees = 4.363323129986 radians
255 degrees = 4.450589592586 radians
260 degrees = 4.537856055185 radians
265 degrees = 4.625122517785 radians
270 degrees = 4.712388980385 radians
275 degrees = 4.799655442984 radians
280 degrees = 4.886921905584 radians
285 degrees = 4.974188368184 radians
290 degrees = 5.061454830784 radians
295 degrees = 5.148721293383 radians
300 degrees = 5.235987755983 radians
305 degrees = 5.323254218583 radians
310 degrees = 5.410520681182 radians
315 degrees = 5.497787143782 radians
320 degrees = 5.585053606382 radians
325 degrees = 5.672320068982 radians
330 degrees = 5.759586531581 radians
335 degrees = 5.846852994181 radians
340 degrees = 5.934119456781 radians
345 degrees = 6.021385919380 radians
350 degrees = 6.108652381980 radians
355 degrees = 6.195918844580 radians
360 degrees = 6.283185307180 radians

gem5 Simulator System.  http://gem5.org
gem5 is copyrighted software; use the --copyright option for details.

gem5 compiled Nov  8 2018 11:09:10
gem5 started Nov 20 2018 23:05:51
gem5 executing on debian-virtual, pid 1300
command line: gem5/build/ALPHA/gem5.opt mygem5script_2.py --my-config=basic --my-bpred=LocalBP -c automotive/basicmath/basicmath_mini


Configuration:            basic
Branch predictor:         LocalBP
Ticks:                    3493800500
Clock domain:             500
Clock cycles:             6987691
Simulated instructions:   2689444
CPI:                      2.598192
Committed instructions:   2689444
Host seconds:             21.23
Misprediction ratio:      19.20900
BTB hits:                 269670
