gem5 Simulator System.  http://gem5.org
gem5 is copyrighted software; use the --copyright option for details.

gem5 compiled Nov  8 2018 11:09:10
gem5 started Nov 15 2018 14:52:27
gem5 executing on debian-virtual, pid 5223
command line: gem5/build/ALPHA/gem5.opt mygem5script.py --my-config=x2 --my-bpred=LocalBP -c automotive/basicmath/basicmath_small

Global frequency set at 1000000000000 ticks per second
********* CUBIC FUNCTIONS ***********
Solutions: 2.000000 6.000000 2.500000
Solutions: 2.500000
Solutions: 1.635838
Solutions: 13.811084
Solutions [1.000000,10.000000,5.000000,-1.000000]: -9.460302 0.152671 -0.692369
Solutions [1.000000,10.000000,5.000000,-2.000000]: -9.448407 0.260617 -0.812210
Solutions [1.000000,10.000000,5.000000,-3.000000]: -9.436449 0.348553 -0.912103
Solutions [1.000000,10.000000,5.000000,-4.000000]: -9.424429 0.424429 -1.000000
Solutions [1.000000,10.000000,5.000000,-5.000000]: -9.412344 0.492017 -1.079673
Solutions [1.000000,10.000000,5.500000,-1.000000]: -9.403823 0.143722 -0.739899
Solutions [1.000000,10.000000,5.500000,-2.000000]: -9.391702 0.248536 -0.856834
Solutions [1.000000,10.000000,5.500000,-3.000000]: -9.379515 0.334813 -0.955298
Solutions [1.000000,10.000000,5.500000,-4.000000]: -9.367262 0.409653 -1.042391
Solutions [1.000000,10.000000,5.500000,-5.000000]: -9.354942 0.476534 -1.121592
Solutions [1.000000,10.000000,6.000000,-1.000000]: -9.346609 0.135604 -0.788995
Solutions [1.000000,10.000000,6.000000,-2.000000]: -9.334251 0.237275 -0.903023
Solutions [1.000000,10.000000,6.000000,-3.000000]: -9.321825 0.321825 -1.000000
Solutions [1.000000,10.000000,6.000000,-4.000000]: -9.309330 0.395565 -1.086235
Solutions [1.000000,10.000000,6.000000,-5.000000]: -9.296764 0.461682 -1.164918
Solutions [1.000000,10.000000,6.500000,-1.000000]: -9.288629 0.128226 -0.839597
Solutions [1.000000,10.000000,6.500000,-2.000000]: -9.276025 0.226778 -0.950753
Solutions [1.000000,10.000000,6.500000,-3.000000]: -9.263349 0.309554 -1.046205
Solutions [1.000000,10.000000,6.500000,-4.000000]: -9.250599 0.382138 -1.131539
Solutions [1.000000,10.000000,6.500000,-5.000000]: -9.237776 0.447442 -1.209666
Solutions [1.000000,10.000000,7.000000,-1.000000]: -9.229853 0.121509 -0.891656
Solutions [1.000000,10.000000,7.000000,-2.000000]: -9.216991 0.216991 -1.000000
Solutions [1.000000,10.000000,7.000000,-3.000000]: -9.204052 0.297962 -1.093910
Solutions [1.000000,10.000000,7.000000,-4.000000]: -9.191037 0.369348 -1.178311
Solutions [1.000000,10.000000,7.000000,-5.000000]: -9.177944 0.433796 -1.255852
Solutions [1.000000,10.000000,7.500000,-1.000000]: -9.170246 0.115379 -0.945133
Solutions [1.000000,10.000000,7.500000,-2.000000]: -9.157113 0.207861 -1.050748
Solutions [1.000000,10.000000,7.500000,-3.000000]: -9.143901 0.287013 -1.143112
Solutions [1.000000,10.000000,7.500000,-4.000000]: -9.130607 0.357167 -1.226560
Solutions [1.000000,10.000000,7.500000,-5.000000]: -9.117231 0.420725 -1.303494
Solutions [1.000000,10.000000,8.000000,-1.000000]: -9.109772 0.109772 -1.000000
Solutions [1.000000,10.000000,8.000000,-2.000000]: -9.096356 0.199340 -1.102984
Solutions [1.000000,10.000000,8.000000,-3.000000]: -9.082855 0.276670 -1.193815
Solutions [1.000000,10.000000,8.000000,-4.000000]: -9.069269 0.345569 -1.276300
Solutions [1.000000,10.000000,8.000000,-5.000000]: -9.055596 0.408207 -1.352611
Solutions [1.000000,10.000000,8.500000,-1.000000]: -9.048393 0.104632 -1.056240
Solutions [1.000000,10.000000,8.500000,-2.000000]: -9.034679 0.191380 -1.156701
Solutions [1.000000,10.000000,8.500000,-3.000000]: -9.020875 0.266899 -1.246023
Solutions [1.000000,10.000000,8.500000,-4.000000]: -9.006981 0.334527 -1.327546
Solutions [1.000000,10.000000,8.500000,-5.000000]: -8.992995 0.396221 -1.403226
Solutions [1.000000,10.000000,9.000000,-1.000000]: -8.986065 0.099909 -1.113844
Solutions [1.000000,10.000000,9.000000,-2.000000]: -8.972038 0.183938 -1.211900
Solutions [1.000000,10.000000,9.000000,-3.000000]: -8.957916 0.257665 -1.299749
Solutions [1.000000,10.000000,9.000000,-4.000000]: -8.943698 0.324014 -1.380316
Solutions [1.000000,10.000000,9.000000,-5.000000]: -8.929383 0.384748 -1.455365
Solutions [1.000000,10.000000,9.500000,-1.000000]: -8.922745 0.095559 -1.172814
Solutions [1.000000,10.000000,9.500000,-2.000000]: -8.908387 0.176974 -1.268587
Solutions [1.000000,10.000000,9.500000,-3.000000]: -8.893930 0.248935 -1.355005
Solutions [1.000000,10.000000,9.500000,-4.000000]: -8.879371 0.314005 -1.434634
Solutions [1.000000,10.000000,9.500000,-5.000000]: -8.864708 0.373766 -1.509058
Solutions [1.000000,9.000000,5.000000,-1.000000]: -8.389834 0.155642 -0.765808
Solutions [1.000000,9.000000,5.000000,-2.000000]: -8.374426 0.267435 -0.893009
Solutions [1.000000,9.000000,5.000000,-3.000000]: -8.358899 0.358899 -1.000000
Solutions [1.000000,9.000000,5.000000,-4.000000]: -8.343250 0.437954 -1.094704
Solutions [1.000000,9.000000,5.000000,-5.000000]: -8.327477 0.508424 -1.180947
Solutions [1.000000,9.000000,5.500000,-1.000000]: -8.324902 0.146249 -0.821347
Solutions [1.000000,9.000000,5.500000,-2.000000]: -8.309108 0.254581 -0.945474
Solutions [1.000000,9.000000,5.500000,-3.000000]: -8.293186 0.344188 -1.051003
Solutions [1.000000,9.000000,5.500000,-4.000000]: -8.277134 0.422080 -1.144946
Solutions [1.000000,9.000000,5.500000,-5.000000]: -8.260950 0.491757 -1.230807
Solutions [1.000000,9.000000,6.000000,-1.000000]: -8.258845 0.137763 -0.878918
Solutions [1.000000,9.000000,6.000000,-2.000000]: -8.242641 0.242641 -1.000000
Solutions [1.000000,9.000000,6.000000,-3.000000]: -8.226301 0.330323 -1.104022
Solutions [1.000000,9.000000,6.000000,-4.000000]: -8.209822 0.406981 -1.197159
Solutions [1.000000,9.000000,6.000000,-5.000000]: -8.193202 0.475801 -1.282599
Solutions [1.000000,9.000000,6.500000,-1.000000]: -8.191602 0.130079 -0.938477
Solutions [1.000000,9.000000,6.500000,-2.000000]: -8.174963 0.231547 -1.056585
Solutions [1.000000,9.000000,6.500000,-3.000000]: -8.158179 0.317259 -1.159081
Solutions [1.000000,9.000000,6.500000,-4.000000]: -8.141246 0.392627 -1.251380
Solutions [1.000000,9.000000,6.500000,-5.000000]: -8.124162 0.460536 -1.336374
Solutions [1.000000,9.000000,7.000000,-1.000000]: -8.123106 0.123106 -1.000000
Solutions [1.000000,9.000000,7.000000,-2.000000]: -8.106005 0.221237 -1.115232
Solutions [1.000000,9.000000,7.000000,-3.000000]: -8.088748 0.304953 -1.216205
Solutions [1.000000,9.000000,7.000000,-4.000000]: -8.071333 0.378985 -1.307652
Solutions [1.000000,9.000000,7.000000,-5.000000]: -8.053755 0.445939 -1.392184
Solutions [1.000000,9.000000,7.500000,-1.000000]: -8.053284 0.116761 -1.063477
Solutions [1.000000,9.000000,7.500000,-2.000000]: -8.035691 0.211648 -1.175958
Solutions [1.000000,9.000000,7.500000,-3.000000]: -8.017931 0.293361 -1.275430
Solutions [1.000000,9.000000,7.500000,-4.000000]: -8.000000 0.366025 -1.366025
Solutions [1.000000,9.000000,7.500000,-5.000000]: -7.981893 0.431985 -1.450092
Solutions [1.000000,9.000000,8.000000,-1.000000]: -7.982057 0.110974 -1.128918
Solutions [1.000000,9.000000,8.000000,-2.000000]: -7.963938 0.202724 -1.238786
Solutions [1.000000,9.000000,8.000000,-3.000000]: -7.945640 0.282440 -1.336800
Solutions [1.000000,9.000000,8.000000,-4.000000]: -7.927157 0.353715 -1.426558
Solutions [1.000000,9.000000,8.000000,-5.000000]: -7.908485 0.418651 -1.510166
Solutions [1.000000,9.000000,8.500000,-1.000000]: -7.909335 0.105682 -1.196347
Solutions [1.000000,9.000000,8.500000,-2.000000]: -7.890654 0.194411 -1.303757
Solutions [1.000000,9.000000,8.500000,-3.000000]: -7.871779 0.272148 -1.400370
Solutions [1.000000,9.000000,8.500000,-4.000000]: -7.852704 0.342021 -1.489318
Solutions [1.000000,9.000000,8.500000,-5.000000]: -7.833423 0.405911 -1.572488
Solutions [1.000000,9.000000,9.000000,-1.000000]: -7.835021 0.100830 -1.265809
Solutions [1.000000,9.000000,9.000000,-2.000000]: -7.815736 0.186658 -1.370922
Solutions [1.000000,9.000000,9.000000,-3.000000]: -7.796240 0.262447 -1.466206
Solutions [1.000000,9.000000,9.000000,-4.000000]: -7.776527 0.330914 -1.554387
Solutions [1.000000,9.000000,9.000000,-5.000000]: -7.756591 0.393741 -1.637150
Solutions [1.000000,9.000000,9.500000,-1.000000]: -7.759006 0.096370 -1.337365
Solutions [1.000000,9.000000,9.500000,-2.000000]: -7.739069 0.179421 -1.440351
Solutions [1.000000,9.000000,9.500000,-3.000000]: -7.718904 0.253296 -1.534392
Solutions [1.000000,9.000000,9.500000,-4.000000]: -7.698503 0.320362 -1.621859
Solutions [1.000000,9.000000,9.500000,-5.000000]: -7.677857 0.382115 -1.704258
Solutions [1.000000,8.000000,5.000000,-1.000000]: -7.295897 0.158834 -0.862937
Solutions [1.000000,8.000000,5.000000,-2.000000]: -7.274917 0.274917 -1.000000
Solutions [1.000000,8.000000,5.000000,-3.000000]: -7.253677 0.370366 -1.116688
Solutions [1.000000,8.000000,5.000000,-4.000000]: -7.232169 0.453029 -1.220860
Solutions [1.000000,8.000000,5.000000,-5.000000]: -7.210382 0.526776 -1.316394
Solutions [1.000000,8.000000,5.500000,-1.000000]: -7.218925 0.148948 -0.930023
Solutions [1.000000,8.000000,5.500000,-2.000000]: -7.197204 0.261177 -1.063973
Solutions [1.000000,8.000000,5.500000,-3.000000]: -7.175200 0.354529 -1.179330
Solutions [1.000000,8.000000,5.500000,-4.000000]: -7.152901 0.435874 -1.282972
Solutions [1.000000,8.000000,5.500000,-5.000000]: -7.130298 0.508721 -1.378423
Solutions [1.000000,8.000000,6.000000,-1.000000]: -7.140055 0.140055 -1.000000
Solutions [1.000000,8.000000,6.000000,-2.000000]: -7.117532 0.248464 -1.130933
Solutions [1.000000,8.000000,6.000000,-3.000000]: -7.094697 0.339652 -1.244955
Solutions [1.000000,8.000000,6.000000,-4.000000]: -7.071539 0.419601 -1.348062
Solutions [1.000000,8.000000,6.000000,-5.000000]: -7.048046 0.491479 -1.443433
Solutions [1.000000,8.000000,6.500000,-1.000000]: -7.059140 0.132036 -1.072895
Solutions [1.000000,8.000000,6.500000,-2.000000]: -7.035743 0.236697 -1.200954
Solutions [1.000000,8.000000,6.500000,-3.000000]: -7.012003 0.325680 -1.313677
Solutions [1.000000,8.000000,6.500000,-4.000000]: -6.987906 0.404173 -1.416267
Solutions [1.000000,8.000000,6.500000,-5.000000]: -6.963438 0.475022 -1.511584
Solutions [1.000000,8.000000,7.000000,-1.000000]: -6.976013 0.124784 -1.148771
Solutions [1.000000,8.000000,7.000000,-2.000000]: -6.951660 0.225800 -1.274140
Solutions [1.000000,8.000000,7.000000,-3.000000]: -6.926928 0.312560 -1.385632
Solutions [1.000000,8.000000,7.000000,-4.000000]: -6.901800 0.389553 -1.487753
Solutions [1.000000,8.000000,7.000000,-5.000000]: -6.876258 0.459324 -1.583066
Solutions [1.000000,8.000000,7.500000,-1.000000]: -6.890480 0.118208 -1.227729
Solutions [1.000000,8.000000,7.500000,-2.000000]: -6.865078 0.215700 -1.350622
Solutions [1.000000,8.000000,7.500000,-3.000000]: -6.839253 0.300239 -1.460986
Solutions [1.000000,8.000000,7.500000,-4.000000]: -6.812985 0.375701 -1.562716
Solutions [1.000000,8.000000,7.500000,-5.000000]: -6.786255 0.444354 -1.658099
Solutions [1.000000,8.000000,8.000000,-1.000000]: -6.802319 0.112228 -1.309909
Solutions [1.000000,8.000000,8.000000,-2.000000]: -6.775758 0.206330 -1.430572
Solutions [1.000000,8.000000,8.000000,-3.000000]: -6.748722 0.288665 -1.539944
Solutions [1.000000,8.000000,8.000000,-4.000000]: -6.721189 0.362579 -1.641390
Solutions [1.000000,8.000000,8.000000,-5.000000]: -6.693133 0.430084 -1.736951
Solutions [1.000000,8.000000,8.500000,-1.000000]: -6.711272 0.106774 -1.395502
Solutions [1.000000,8.000000,8.500000,-2.000000]: -6.683422 0.197627 -1.514205
Solutions [1.000000,8.000000,8.500000,-3.000000]: -6.655036 0.277791 -1.622755
Solutions [1.000000,8.000000,8.500000,-4.000000]: -6.626086 0.350147 -1.724061
Solutions [1.000000,8.000000,8.500000,-5.000000]: -6.596541 0.416482 -1.819941
Solutions [1.000000,8.000000,9.000000,-1.000000]: -6.617036 0.101785 -1.484749
Solutions [1.000000,8.000000,9.000000,-2.000000]: -6.587741 0.189534 -1.601793
Solutions [1.000000,8.000000,9.000000,-3.000000]: -6.557837 0.267567 -1.709730
Solutions [1.000000,8.000000,9.000000,-4.000000]: -6.527289 0.338368 -1.811080
Solutions [1.000000,8.000000,9.000000,-5.000000]: -6.496057 0.403519 -1.907462
Solutions [1.000000,8.000000,9.500000,-1.000000]: -6.519248 0.097209 -1.577961
Solutions [1.000000,8.000000,9.500000,-2.000000]: -6.488324 0.181998 -1.693675
Solutions [1.000000,8.000000,9.500000,-3.000000]: -6.456698 0.257950 -1.801252
Solutions [1.000000,8.000000,9.500000,-4.000000]: -6.424328 0.327206 -1.902878
Solutions [1.000000,8.000000,9.500000,-5.000000]: -6.391165 0.391165 -2.000000
Solutions [1.000000,7.000000,5.000000,-1.000000]: -6.162278 0.162278 -1.000000
Solutions [1.000000,7.000000,5.000000,-2.000000]: -6.131313 0.283186 -1.151873
Solutions [1.000000,7.000000,5.000000,-3.000000]: -6.099648 0.383185 -1.283537
Solutions [1.000000,7.000000,5.000000,-4.000000]: -6.067240 0.469990 -1.402750
Solutions [1.000000,7.000000,5.000000,-5.000000]: -6.034042 0.547507 -1.513465
Solutions [1.000000,7.000000,5.500000,-1.000000]: -6.066155 0.151839 -1.085684
Solutions [1.000000,7.000000,5.500000,-2.000000]: -6.033479 0.268421 -1.234941
Solutions [1.000000,7.000000,5.500000,-3.000000]: -6.000000 0.366025 -1.366025
Solutions [1.000000,7.000000,5.500000,-4.000000]: -5.965663 0.451319 -1.485655
Solutions [1.000000,7.000000,5.500000,-5.000000]: -5.930409 0.527804 -1.597395
Solutions [1.000000,7.000000,6.000000,-1.000000]: -5.966250 0.142495 -1.176245
Solutions [1.000000,7.000000,6.000000,-2.000000]: -5.931630 0.254820 -1.323190
Solutions [1.000000,7.000000,6.000000,-3.000000]: -5.896077 0.349967 -1.453889
Solutions [1.000000,7.000000,6.000000,-4.000000]: -5.859523 0.433665 -1.574141
Solutions [1.000000,7.000000,6.000000,-5.000000]: -5.821890 0.509040 -1.687151
Solutions [1.000000,7.000000,6.500000,-1.000000]: -5.862078 0.134107 -1.272029
Solutions [1.000000,7.000000,6.500000,-2.000000]: -5.825224 0.242286 -1.417062
Solutions [1.000000,7.000000,6.500000,-3.000000]: -5.787274 0.334942 -1.547668
Solutions [1.000000,7.000000,6.500000,-4.000000]: -5.748138 0.416982 -1.668844
Solutions [1.000000,7.000000,6.500000,-5.000000]: -5.707712 0.491182 -1.783470
Solutions [1.000000,7.000000,7.000000,-1.000000]: -5.753038 0.126552 -1.373514
Solutions [1.000000,7.000000,7.000000,-2.000000]: -5.713585 0.230725 -1.517141
Solutions [1.000000,7.000000,7.000000,-3.000000]: -5.672824 0.320884 -1.648061
Solutions [1.000000,7.000000,7.000000,-4.000000]: -5.630634 0.401222 -1.770589
Solutions [1.000000,7.000000,7.000000,-5.000000]: -5.586875 0.474194 -1.887319
Solutions [1.000000,7.000000,7.500000,-1.000000]: -5.638374 0.119726 -1.481352
Solutions [1.000000,7.000000,7.500000,-2.000000]: -5.595851 0.220051 -1.624200
Solutions [1.000000,7.000000,7.500000,-3.000000]: -5.551738 0.307730 -1.755992
Solutions [1.000000,7.000000,7.500000,-4.000000]: -5.505867 0.386338 -1.880471
Solutions [1.000000,7.000000,7.500000,-5.000000]: -5.458040 0.458040 -2.000000
Solutions [1.000000,7.000000,8.000000,-1.000000]: -5.517113 0.113538 -1.596424
Solutions [1.000000,7.000000,8.000000,-2.000000]: -5.470896 0.210184 -1.739289
Solutions [1.000000,7.000000,8.000000,-3.000000]: -5.422699 0.295416 -1.872717
Solutions [1.000000,7.000000,8.000000,-4.000000]: -5.372281 0.372281 -2.000000
Solutions [1.000000,7.000000,8.000000,-5.000000]: -5.319350 0.442683 -2.123333
Solutions [1.000000,7.000000,8.500000,-1.000000]: -5.387962 0.107910 -1.719947
Solutions [1.000000,7.000000,8.500000,-2.000000]: -5.337191 0.201050 -1.863859
Solutions [1.000000,7.000000,8.500000,-3.000000]: -5.283882 0.283882 -2.000000
Solutions [1.000000,7.000000,8.500000,-4.000000]: -5.227669 0.359005 -2.131336
Solutions [1.000000,7.000000,8.500000,-5.000000]: -5.168090 0.428087 -2.259997
Solutions [1.000000,7.000000,9.000000,-1.000000]: -5.249141 0.102775 -1.853635
Solutions [1.000000,7.000000,9.000000,-2.000000]: -5.192582 0.192582 -2.000000
Solutions [1.000000,7.000000,9.000000,-3.000000]: -5.132637 0.273073 -2.140435
Solutions [1.000000,7.000000,9.000000,-4.000000]: -5.068708 0.346462 -2.277754
Solutions [1.000000,7.000000,9.000000,-5.000000]: -5.000000 0.414214 -2.414214
Solutions [1.000000,7.000000,9.500000,-1.000000]: -5.098076 0.098076 -2.000000
Solutions [1.000000,7.000000,9.500000,-2.000000]: -5.033848 0.184721 -2.150873
Solutions [1.000000,7.000000,9.500000,-3.000000]: -4.964838 0.262935 -2.298097
Solutions [1.000000,7.000000,9.500000,-4.000000]: -4.889963 0.334610 -2.444646
Solutions [1.000000,7.000000,9.500000,-5.000000]: -4.807668 0.401026 -2.593359
Solutions [1.000000,6.000000,5.000000,-1.000000]: -4.948828 0.166013 -1.217184
Solutions [1.000000,6.000000,5.000000,-2.000000]: -4.895107 0.292402 -1.397295
Solutions [1.000000,6.000000,5.000000,-3.000000]: -4.838469 0.397662 -1.559192
Solutions [1.000000,6.000000,5.000000,-4.000000]: -4.778457 0.489289 -1.710831
Solutions [1.000000,6.000000,5.000000,-5.000000]: -4.714479 0.571201 -1.856723
Solutions [1.000000,6.000000,5.500000,-1.000000]: -4.814468 0.154950 -1.340482
Solutions [1.000000,6.000000,5.500000,-2.000000]: -4.754814 0.276433 -1.521619
Solutions [1.000000,6.000000,5.500000,-3.000000]: -4.691307 0.378925 -1.687618
Solutions [1.000000,6.000000,5.500000,-4.000000]: -4.623207 0.468794 -1.845587
Solutions [1.000000,6.000000,5.500000,-5.000000]: -4.549510 0.549510 -2.000000
Solutions [1.000000,6.000000,6.000000,-1.000000]: -4.669079 0.145103 -1.476024
Solutions [1.000000,6.000000,6.000000,-2.000000]: -4.601679 0.261802 -1.660123
Solutions [1.000000,6.000000,6.000000,-3.000000]: -4.528918 0.361469 -1.832551
Solutions [1.000000,6.000000,6.000000,-4.000000]: -4.449490 0.449490 -2.000000
Solutions [1.000000,6.000000,6.000000,-5.000000]: -4.361469 0.528918 -2.167449
Solutions [1.000000,6.000000,6.500000,-1.000000]: -4.509384 0.136306 -1.626922
Solutions [1.000000,6.000000,6.500000,-2.000000]: -4.431316 0.248385 -1.817069
Solutions [1.000000,6.000000,6.500000,-3.000000]: -4.345208 0.345208 -2.000000
Solutions [1.000000,6.000000,6.500000,-4.000000]: -4.248385 0.431316 -2.182931
Solutions [1.000000,6.000000,6.500000,-5.000000]: -4.136306 0.509384 -2.373078
Solutions [1.000000,6.000000,7.000000,-1.000000]: -4.330059 0.128419 -1.798360
Solutions [1.000000,6.000000,7.000000,-2.000000]: -4.236068 0.236068 -2.000000
Solutions [1.000000,6.000000,7.000000,-3.000000]: -4.128419 0.330059 -2.201640
Solutions [1.000000,6.000000,7.000000,-4.000000]: -4.000000 0.414214 -2.414214
Solutions [1.000000,6.000000,7.000000,-5.000000]: -3.834243 0.490864 -2.656620
Solutions [1.000000,6.000000,7.500000,-1.000000]: -4.121320 0.121320 -2.000000
Solutions [1.000000,6.000000,7.500000,-2.000000]: -4.000000 0.224745 -2.224745
Solutions [1.000000,6.000000,7.500000,-3.000000]: -3.848850 0.315940 -2.467090
Solutions [1.000000,6.000000,7.500000,-4.000000]: -3.631223 0.398120 -2.766897
Solutions [1.000000,6.000000,7.500000,-5.000000]: 0.473311
Solutions [1.000000,6.000000,8.000000,-1.000000]: -3.860806 0.114908 -2.254102
Solutions [1.000000,6.000000,8.000000,-2.000000]: -3.675131 0.214320 -2.539189
Solutions [1.000000,6.000000,8.000000,-3.000000]: -3.302776 0.302776 -3.000000
Solutions [1.000000,6.000000,8.000000,-4.000000]: 0.382976
Solutions [1.000000,6.000000,8.000000,-5.000000]: 0.456678
Solutions [1.000000,6.000000,8.500000,-1.000000]: -3.459261 0.109093 -2.649832
Solutions [1.000000,6.000000,8.500000,-2.000000]: 0.204705
Solutions [1.000000,6.000000,8.500000,-3.000000]: 0.290491
Solutions [1.000000,6.000000,8.500000,-4.000000]: 0.368722
Solutions [1.000000,6.000000,8.500000,-5.000000]: 0.440920
Solutions [1.000000,6.000000,9.000000,-1.000000]: 0.103803
Solutions [1.000000,6.000000,9.000000,-2.000000]: 0.195823
Solutions [1.000000,6.000000,9.000000,-3.000000]: 0.279019
Solutions [1.000000,6.000000,9.000000,-4.000000]: 0.355301
Solutions [1.000000,6.000000,9.000000,-5.000000]: 0.425989
Solutions [1.000000,6.000000,9.500000,-1.000000]: 0.098974
Solutions [1.000000,6.000000,9.500000,-2.000000]: 0.187603
Solutions [1.000000,6.000000,9.500000,-3.000000]: 0.268294
Solutions [1.000000,6.000000,9.500000,-4.000000]: 0.342660
Solutions [1.000000,6.000000,9.500000,-5.000000]: 0.411840
Solutions [2.000000,10.000000,5.000000,-1.000000]: -4.406972 0.152237 -0.745264
Solutions [2.000000,10.000000,5.000000,-2.000000]: -4.376569 0.258947 -0.882378
Solutions [2.000000,10.000000,5.000000,-3.000000]: -4.345208 0.345208 -1.000000
Solutions [2.000000,10.000000,5.000000,-4.000000]: -4.312806 0.419157 -1.106351
Solutions [2.000000,10.000000,5.000000,-5.000000]: -4.279266 0.484664 -1.205398
Solutions [2.000000,10.000000,5.500000,-1.000000]: -4.339779 0.143373 -0.803594
Solutions [2.000000,10.000000,5.500000,-2.000000]: -4.307722 0.247118 -0.939396
Solutions [2.000000,10.000000,5.500000,-3.000000]: -4.274567 0.331888 -1.057322
Solutions [2.000000,10.000000,5.500000,-4.000000]: -4.240208 0.404958 -1.164750
Solutions [2.000000,10.000000,5.500000,-5.000000]: -4.204524 0.469899 -1.265374
Solutions [2.000000,10.000000,6.000000,-1.000000]: -4.270001 0.135321 -0.865320
Solutions [2.000000,10.000000,6.000000,-2.000000]: -4.236068 0.236068 -1.000000
Solutions [2.000000,10.000000,6.000000,-3.000000]: -4.200862 0.319267 -1.118405
Solutions [2.000000,10.000000,6.000000,-4.000000]: -4.164248 0.391382 -1.227134
Solutions [2.000000,10.000000,6.000000,-5.000000]: -4.126068 0.455695 -1.329627
Solutions [2.000000,10.000000,6.500000,-1.000000]: -4.197314 0.127996 -0.930682
Solutions [2.000000,10.000000,6.500000,-2.000000]: -4.161230 0.225749 -1.064518
Solutions [2.000000,10.000000,6.500000,-3.000000]: -4.123652 0.307314 -1.183662
Solutions [2.000000,10.000000,6.500000,-4.000000]: -4.084403 0.378411 -1.294009
Solutions [2.000000,10.000000,6.500000,-5.000000]: -4.043272 0.442040 -1.398768
Solutions [2.000000,10.000000,7.000000,-1.000000]: -4.121320 0.121320 -1.000000
Solutions [2.000000,10.000000,7.000000,-2.000000]: -4.082740 0.216111 -1.133371
Solutions [2.000000,10.000000,7.000000,-3.000000]: -4.042378 0.295998 -1.253619
Solutions [2.000000,10.000000,7.000000,-4.000000]: -4.000000 0.366025 -1.366025
Solutions [2.000000,10.000000,7.000000,-5.000000]: -3.955314 0.428921 -1.473607
Solutions [2.000000,10.000000,7.500000,-1.000000]: -4.041520 0.115223 -1.073703
Solutions [2.000000,10.000000,7.500000,-2.000000]: -4.000000 0.207107 -1.207107
Solutions [2.000000,10.000000,7.500000,-3.000000]: -3.956317 0.285289 -1.328972
Solutions [2.000000,10.000000,7.500000,-4.000000]: -3.910145 0.354203 -1.444058
Solutions [2.000000,10.000000,7.500000,-5.000000]: -3.861070 0.416324 -1.555254
Solutions [2.000000,10.000000,8.000000,-1.000000]: -3.957275 0.109643 -1.152368
Solutions [2.000000,10.000000,8.000000,-2.000000]: -3.912229 0.198691 -1.286462
Solutions [2.000000,10.000000,8.000000,-3.000000]: -3.864497 0.275155 -1.410658
Solutions [2.000000,10.000000,8.000000,-4.000000]: -3.813607 0.342923 -1.529317
Solutions [2.000000,10.000000,8.000000,-5.000000]: -3.758935 0.404232 -1.645297
Solutions [2.000000,10.000000,8.500000,-1.000000]: -3.867745 0.104525 -1.236780
Solutions [2.000000,10.000000,8.500000,-2.000000]: -3.818373 0.190821 -1.372447
Solutions [2.000000,10.000000,8.500000,-3.000000]: -3.765564 0.265564 -1.500000
Solutions [2.000000,10.000000,8.500000,-4.000000]: -3.708600 0.332163 -1.623563
Solutions [2.000000,10.000000,8.500000,-5.000000]: -3.646476 0.392630 -1.746155
Solutions [2.000000,10.000000,9.000000,-1.000000]: -3.771785 0.099819 -1.328034
Solutions [2.000000,10.000000,9.000000,-2.000000]: -3.716948 0.183455 -1.466507
Solutions [2.000000,10.000000,9.000000,-3.000000]: -3.657535 0.256488 -1.598953
Solutions [2.000000,10.000000,9.000000,-4.000000]: -3.592366 0.321900 -1.729533
Solutions [2.000000,10.000000,9.000000,-5.000000]: -3.519659 0.381502 -1.861843
Solutions [2.000000,10.000000,9.500000,-1.000000]: -3.667766 0.095483 -1.427717
Solutions [2.000000,10.000000,9.500000,-2.000000]: -3.605742 0.176555 -1.570814
Solutions [2.000000,10.000000,9.500000,-3.000000]: -3.537278 0.247896 -1.710618
Solutions [2.000000,10.000000,9.500000,-4.000000]: -3.460208 0.312111 -1.851903
Solutions [2.000000,10.000000,9.500000,-5.000000]: -3.370829 0.370829 -2.000000
Solutions [2.000000,9.000000,5.000000,-1.000000]: -3.809244 0.155167 -0.845924
Solutions [2.000000,9.000000,5.000000,-2.000000]: -3.765564 0.265564 -1.000000
Solutions [2.000000,9.000000,5.000000,-3.000000]: -3.719426 0.355107 -1.135681
Solutions [2.000000,9.000000,5.000000,-4.000000]: -3.670424 0.431938 -1.261514
Solutions [2.000000,9.000000,5.000000,-5.000000]: -3.618034 0.500000 -1.381966
Solutions [2.000000,9.000000,5.500000,-1.000000]: -3.725908 0.145871 -0.919963
Solutions [2.000000,9.000000,5.500000,-2.000000]: -3.678514 0.253003 -1.074489
Solutions [2.000000,9.000000,5.500000,-3.000000]: -3.628062 0.340892 -1.212829
Solutions [2.000000,9.000000,5.500000,-4.000000]: -3.573971 0.416749 -1.342778
Solutions [2.000000,9.000000,5.500000,-5.000000]: -3.515446 0.484188 -1.468742
Solutions [2.000000,9.000000,6.000000,-1.000000]: -3.637459 0.137459 -1.000000
Solutions [2.000000,9.000000,6.000000,-2.000000]: -3.585515 0.241306 -1.155792
Solutions [2.000000,9.000000,6.000000,-3.000000]: -3.529660 0.327455 -1.297795
Solutions [2.000000,9.000000,6.000000,-4.000000]: -3.469002 0.402256 -1.433254
Solutions [2.000000,9.000000,6.000000,-5.000000]: -3.402256 0.469002 -1.566746
Solutions [2.000000,9.000000,6.500000,-1.000000]: -3.542814 0.129833 -1.087018
Solutions [2.000000,9.000000,6.500000,-2.000000]: -3.485139 0.230417 -1.245278
Solutions [2.000000,9.000000,6.500000,-3.000000]: -3.422260 0.314762 -1.392502
Solutions [2.000000,9.000000,6.500000,-4.000000]: -3.352709 0.388436 -1.535727
Solutions [2.000000,9.000000,6.500000,-5.000000]: -3.274183 0.454427 -1.680245
Solutions [2.000000,9.000000,7.000000,-1.000000]: -3.440450 0.122905 -1.182456
Solutions [2.000000,9.000000,7.000000,-2.000000]: -3.375268 0.220276 -1.345008
Solutions [2.000000,9.000000,7.000000,-3.000000]: -3.302776 0.302776 -1.500000
Solutions [2.000000,9.000000,7.000000,-4.000000]: -3.220276 0.375268 -1.654992
Solutions [2.000000,9.000000,7.000000,-5.000000]: -3.122905 0.440450 -1.817544
Solutions [2.000000,9.000000,7.500000,-1.000000]: -3.328083 0.116597 -1.288514
Solutions [2.000000,9.000000,7.500000,-2.000000]: -3.252520 0.210829 -1.458309
Solutions [2.000000,9.000000,7.500000,-3.000000]: -3.165798 0.291459 -1.625661
Solutions [2.000000,9.000000,7.500000,-4.000000]: -3.061992 0.362724 -1.800733
Solutions [2.000000,9.000000,7.500000,-5.000000]: -2.927051 0.427051 -2.000000
Solutions [2.000000,9.000000,8.000000,-1.000000]: -3.202023 0.110839 -1.408815
Solutions [2.000000,9.000000,8.000000,-2.000000]: -3.110839 0.202023 -1.591185
Solutions [2.000000,9.000000,8.000000,-3.000000]: -3.000000 0.280776 -1.780776
Solutions [2.000000,9.000000,8.000000,-4.000000]: -2.850781 0.350781 -2.000000
Solutions [2.000000,9.000000,8.000000,-5.000000]: -2.500000 0.414214 -2.414214
Solutions [2.000000,9.000000,8.500000,-1.000000]: -3.055520 0.105570 -1.550050
Solutions [2.000000,9.000000,8.500000,-2.000000]: -2.937038 0.193810 -1.756772
Solutions [2.000000,9.000000,8.500000,-3.000000]: -2.770691 0.270691 -2.000000
Solutions [2.000000,9.000000,8.500000,-4.000000]: 0.339412
Solutions [2.000000,9.000000,8.500000,-5.000000]: 0.401918
Solutions [2.000000,9.000000,9.000000,-1.000000]: -2.873284 0.100736 -1.727452
Solutions [2.000000,9.000000,9.000000,-2.000000]: -2.686141 0.186141 -2.000000
Solutions [2.000000,9.000000,9.000000,-3.000000]: 0.261167
Solutions [2.000000,9.000000,9.000000,-4.000000]: 0.328589
Solutions [2.000000,9.000000,9.000000,-5.000000]: 0.390145
Solutions [2.000000,9.000000,9.500000,-1.000000]: -2.596291 0.096291 -2.000000
Solutions [2.000000,9.000000,9.500000,-2.000000]: 0.178974
Solutions [2.000000,9.000000,9.500000,-3.000000]: 0.252170
Solutions [2.000000,9.000000,9.500000,-4.000000]: 0.318289
Solutions [2.000000,9.000000,9.500000,-5.000000]: 0.378875
Solutions [2.000000,8.000000,5.000000,-1.000000]: -3.158312 0.158312 -1.000000
Solutions [2.000000,8.000000,5.000000,-2.000000]: -3.084334 0.272804 -1.188470
Solutions [2.000000,8.000000,5.000000,-3.000000]: -3.000000 0.366025 -1.366025
Solutions [2.000000,8.000000,5.000000,-4.000000]: -2.900221 0.446093 -1.545872
Solutions [2.000000,8.000000,5.000000,-5.000000]: -2.773753 0.517021 -1.743268
Solutions [2.000000,8.000000,5.500000,-1.000000]: -3.041936 0.148535 -1.106599
Solutions [2.000000,8.000000,5.500000,-2.000000]: -2.954758 0.259408 -1.304650
Solutions [2.000000,8.000000,5.500000,-3.000000]: -2.850781 0.350781 -1.500000
Solutions [2.000000,8.000000,5.500000,-4.000000]: -2.716832 0.429762 -1.712929
Solutions [2.000000,8.000000,5.500000,-5.000000]: -2.500000 0.500000 -2.000000
Solutions [2.000000,8.000000,6.000000,-1.000000]: -2.910045 0.139726 -1.229681
Solutions [2.000000,8.000000,6.000000,-2.000000]: -2.801938 0.246980 -1.445042
Solutions [2.000000,8.000000,6.000000,-3.000000]: -2.660442 0.336412 -1.675970
Solutions [2.000000,8.000000,6.000000,-4.000000]: -2.414214 0.414214 -2.000000
Solutions [2.000000,8.000000,6.000000,-5.000000]: 0.483683
Solutions [2.000000,8.000000,6.500000,-1.000000]: -2.753951 0.131771 -1.377820
Solutions [2.000000,8.000000,6.500000,-2.000000]: -2.605092 0.235448 -1.630356
Solutions [2.000000,8.000000,6.500000,-3.000000]: -2.322876 0.322876 -2.000000
Solutions [2.000000,8.000000,6.500000,-4.000000]: 0.399423
Solutions [2.000000,8.000000,6.500000,-5.000000]: 0.468052
Solutions [2.000000,8.000000,7.000000,-1.000000]: -2.551388 0.124570 -1.573183
Solutions [2.000000,8.000000,7.000000,-2.000000]: -2.224745 0.224745 -2.000000
Solutions [2.000000,8.000000,7.000000,-3.000000]: 0.310129
Solutions [2.000000,8.000000,7.000000,-4.000000]: 0.385361
Solutions [2.000000,8.000000,7.000000,-5.000000]: 0.453091
Solutions [2.000000,8.000000,7.500000,-1.000000]: -2.118034 0.118034 -2.000000
Solutions [2.000000,8.000000,7.500000,-2.000000]: 0.214806
Solutions [2.000000,8.000000,7.500000,-3.000000]: 0.298128
Solutions [2.000000,8.000000,7.500000,-4.000000]: 0.371998
Solutions [2.000000,8.000000,7.500000,-5.000000]: 0.438778
Solutions [2.000000,8.000000,8.000000,-1.000000]: 0.112085
Solutions [2.000000,8.000000,8.000000,-2.000000]: 0.205569
Solutions [2.000000,8.000000,8.000000,-3.000000]: 0.286829
Solutions [2.000000,8.000000,8.000000,-4.000000]: 0.359304
Solutions [2.000000,8.000000,8.000000,-5.000000]: 0.425092
Solutions [2.000000,8.000000,8.500000,-1.000000]: 0.106655
Solutions [2.000000,8.000000,8.500000,-2.000000]: 0.196978
Solutions [2.000000,8.000000,8.500000,-3.000000]: 0.276190
Solutions [2.000000,8.000000,8.500000,-4.000000]: 0.347248
Solutions [2.000000,8.000000,8.500000,-5.000000]: 0.412011
Solutions [2.000000,8.000000,9.000000,-1.000000]: 0.101686
Solutions [2.000000,8.000000,9.000000,-2.000000]: 0.188978
Solutions [2.000000,8.000000,9.000000,-3.000000]: 0.266169
Solutions [2.000000,8.000000,9.000000,-4.000000]: 0.335798
Solutions [2.000000,8.000000,9.000000,-5.000000]: 0.399511
Solutions [2.000000,8.000000,9.500000,-1.000000]: 0.097126
Solutions [2.000000,8.000000,9.500000,-2.000000]: 0.181520
Solutions [2.000000,8.000000,9.500000,-3.000000]: 0.256726
Solutions [2.000000,8.000000,9.500000,-4.000000]: 0.324925
Solutions [2.000000,8.000000,9.500000,-5.000000]: 0.387568
Solutions [2.000000,7.000000,5.000000,-1.000000]: -2.340665 0.161702 -1.321037
Solutions [2.000000,7.000000,5.000000,-2.000000]: -2.000000 0.280776 -1.780776
Solutions [2.000000,7.000000,5.000000,-3.000000]: 0.378161
Solutions [2.000000,7.000000,5.000000,-4.000000]: 0.461896
Solutions [2.000000,7.000000,5.000000,-5.000000]: 0.536067
Solutions [2.000000,7.000000,5.500000,-1.000000]: -2.000000 0.151388 -1.651388
Solutions [2.000000,7.000000,5.500000,-2.000000]: 0.266421
Solutions [2.000000,7.000000,5.500000,-3.000000]: 0.361720
Solutions [2.000000,7.000000,5.500000,-4.000000]: 0.444232
Solutions [2.000000,7.000000,5.500000,-5.000000]: 0.517634
Solutions [2.000000,7.000000,6.000000,-1.000000]: 0.142139
Solutions [2.000000,7.000000,6.000000,-2.000000]: 0.253156
Solutions [2.000000,7.000000,6.000000,-3.000000]: 0.346272
Solutions [2.000000,7.000000,6.000000,-4.000000]: 0.427458
Solutions [2.000000,7.000000,6.000000,-5.000000]: 0.500000
Solutions [2.000000,7.000000,6.500000,-1.000000]: 0.133823
Solutions [2.000000,7.000000,6.500000,-2.000000]: 0.240896
Solutions [2.000000,7.000000,6.500000,-3.000000]: 0.331767
Solutions [2.000000,7.000000,6.500000,-4.000000]: 0.411542
Solutions [2.000000,7.000000,6.500000,-5.000000]: 0.483145
Solutions [2.000000,7.000000,7.000000,-1.000000]: 0.126324
Solutions [2.000000,7.000000,7.000000,-2.000000]: 0.229560
Solutions [2.000000,7.000000,7.000000,-3.000000]: 0.318151
Solutions [2.000000,7.000000,7.000000,-4.000000]: 0.396451
Solutions [2.000000,7.000000,7.000000,-5.000000]: 0.467046
Solutions [2.000000,7.000000,7.500000,-1.000000]: 0.119541
Solutions [2.000000,7.000000,7.500000,-2.000000]: 0.219071
Solutions [2.000000,7.000000,7.500000,-3.000000]: 0.305371
Solutions [2.000000,7.000000,7.500000,-4.000000]: 0.382149
Solutions [2.000000,7.000000,7.500000,-5.000000]: 0.451680
Solutions [2.000000,7.000000,8.000000,-1.000000]: 0.113386
Solutions [2.000000,7.000000,8.000000,-2.000000]: 0.209355
Solutions [2.000000,7.000000,8.000000,-3.000000]: 0.293376
Solutions [2.000000,7.000000,8.000000,-4.000000]: 0.368598
Solutions [2.000000,7.000000,8.000000,-5.000000]: 0.437020
Solutions [2.000000,7.000000,8.500000,-1.000000]: 0.107785
Solutions [2.000000,7.000000,8.500000,-2.000000]: 0.200347
Solutions [2.000000,7.000000,8.500000,-3.000000]: 0.282115
Solutions [2.000000,7.000000,8.500000,-4.000000]: 0.355762
Solutions [2.000000,7.000000,8.500000,-5.000000]: 0.423040
Solutions [2.000000,7.000000,9.000000,-1.000000]: 0.102672
Solutions [2.000000,7.000000,9.000000,-2.000000]: 0.191983
Solutions [2.000000,7.000000,9.000000,-3.000000]: 0.271537
Solutions [2.000000,7.000000,9.000000,-4.000000]: 0.343603
Solutions [2.000000,7.000000,9.000000,-5.000000]: 0.409712
Solutions [2.000000,7.000000,9.500000,-1.000000]: 0.097990
Solutions [2.000000,7.000000,9.500000,-2.000000]: 0.184208
Solutions [2.000000,7.000000,9.500000,-3.000000]: 0.261597
Solutions [2.000000,7.000000,9.500000,-4.000000]: 0.332084
Solutions [2.000000,7.000000,9.500000,-5.000000]: 0.397006
Solutions [2.000000,6.000000,5.000000,-1.000000]: 0.165373
Solutions [2.000000,6.000000,5.000000,-2.000000]: 0.289624
Solutions [2.000000,6.000000,5.000000,-3.000000]: 0.391769
Solutions [2.000000,6.000000,5.000000,-4.000000]: 0.479705
Solutions [2.000000,6.000000,5.000000,-5.000000]: 0.557582
Solutions [2.000000,6.000000,5.500000,-1.000000]: 0.154454
Solutions [2.000000,6.000000,5.500000,-2.000000]: 0.274152
Solutions [2.000000,6.000000,5.500000,-3.000000]: 0.373918
Solutions [2.000000,6.000000,5.500000,-4.000000]: 0.460466
Solutions [2.000000,6.000000,5.500000,-5.000000]: 0.537481
Solutions [2.000000,6.000000,6.000000,-1.000000]: 0.144714
Solutions [2.000000,6.000000,6.000000,-2.000000]: 0.259921
Solutions [2.000000,6.000000,6.000000,-3.000000]: 0.357209
Solutions [2.000000,6.000000,6.000000,-4.000000]: 0.442250
Solutions [2.000000,6.000000,6.000000,-5.000000]: 0.518294
Solutions [2.000000,6.000000,6.500000,-1.000000]: 0.135999
Solutions [2.000000,6.000000,6.500000,-2.000000]: 0.246828
Solutions [2.000000,6.000000,6.500000,-3.000000]: 0.341576
Solutions [2.000000,6.000000,6.500000,-4.000000]: 0.425017
Solutions [2.000000,6.000000,6.500000,-5.000000]: 0.500000
Solutions [2.000000,6.000000,7.000000,-1.000000]: 0.128174
Solutions [2.000000,6.000000,7.000000,-2.000000]: 0.234773
Solutions [2.000000,6.000000,7.000000,-3.000000]: 0.326956
Solutions [2.000000,6.000000,7.000000,-4.000000]: 0.408727
Solutions [2.000000,6.000000,7.000000,-5.000000]: 0.482571
Solutions [2.000000,6.000000,7.500000,-1.000000]: 0.121123
Solutions [2.000000,6.000000,7.500000,-2.000000]: 0.223663
Solutions [2.000000,6.000000,7.500000,-3.000000]: 0.313283
Solutions [2.000000,6.000000,7.500000,-4.000000]: 0.393335
Solutions [2.000000,6.000000,7.500000,-5.000000]: 0.465977
Solutions [2.000000,6.000000,8.000000,-1.000000]: 0.114747
Solutions [2.000000,6.000000,8.000000,-2.000000]: 0.213412
Solutions [2.000000,6.000000,8.000000,-3.000000]: 0.300494
Solutions [2.000000,6.000000,8.000000,-4.000000]: 0.378797
Solutions [2.000000,6.000000,8.000000,-5.000000]: 0.450188
Solutions [2.000000,6.000000,8.500000,-1.000000]: 0.108962
Solutions [2.000000,6.000000,8.500000,-2.000000]: 0.203940
Solutions [2.000000,6.000000,8.500000,-3.000000]: 0.288527
Solutions [2.000000,6.000000,8.500000,-4.000000]: 0.365065
Solutions [2.000000,6.000000,8.500000,-5.000000]: 0.435170
Solutions [2.000000,6.000000,9.000000,-1.000000]: 0.103695
Solutions [2.000000,6.000000,9.000000,-2.000000]: 0.195175
Solutions [2.000000,6.000000,9.000000,-3.000000]: 0.277322
Solutions [2.000000,6.000000,9.000000,-4.000000]: 0.352096
Solutions [2.000000,6.000000,9.000000,-5.000000]: 0.420889
Solutions [2.000000,6.000000,9.500000,-1.000000]: 0.098884
Solutions [2.000000,6.000000,9.500000,-2.000000]: 0.187051
Solutions [2.000000,6.000000,9.500000,-3.000000]: 0.266825
Solutions [2.000000,6.000000,9.500000,-4.000000]: 0.339845
Solutions [2.000000,6.000000,9.500000,-5.000000]: 0.407310
Solutions [3.000000,10.000000,5.000000,-1.000000]: -2.659529 0.151809 -0.825613
Solutions [3.000000,10.000000,5.000000,-2.000000]: -2.590667 0.257334 -1.000000
Solutions [3.000000,10.000000,5.000000,-3.000000]: -2.510977 0.342028 -1.164384
Solutions [3.000000,10.000000,5.000000,-4.000000]: -2.414214 0.414214 -1.333333
Solutions [3.000000,10.000000,5.000000,-5.000000]: -2.284324 0.477850 -1.526860
Solutions [3.000000,10.000000,5.500000,-1.000000]: -2.569277 0.143028 -0.907084
Solutions [3.000000,10.000000,5.500000,-2.000000]: -2.489239 0.245743 -1.089837
Solutions [3.000000,10.000000,5.500000,-3.000000]: -2.392216 0.329096 -1.270213
Solutions [3.000000,10.000000,5.500000,-4.000000]: -2.262616 0.400535 -1.471252
Solutions [3.000000,10.000000,5.500000,-5.000000]: -2.000000 0.463722 -1.797055
Solutions [3.000000,10.000000,6.000000,-1.000000]: -2.468375 0.135042 -1.000000
Solutions [3.000000,10.000000,6.000000,-2.000000]: -2.371401 0.234894 -1.196827
Solutions [3.000000,10.000000,6.000000,-3.000000]: -2.242776 0.316815 -1.407372
Solutions [3.000000,10.000000,6.000000,-4.000000]: -2.000000 0.387426 -1.720759
Solutions [3.000000,10.000000,6.000000,-5.000000]: 0.450097
Solutions [3.000000,10.000000,6.500000,-1.000000]: -2.351776 0.127768 -1.109326
Solutions [3.000000,10.000000,6.500000,-2.000000]: -2.224745 0.224745 -1.333333
Solutions [3.000000,10.000000,6.500000,-3.000000]: -2.000000 0.305159 -1.638492
Solutions [3.000000,10.000000,6.500000,-4.000000]: 0.374872
Solutions [3.000000,10.000000,6.500000,-5.000000]: 0.436968
Solutions [3.000000,10.000000,7.000000,-1.000000]: -2.208430 0.121133 -1.246037
Solutions [3.000000,10.000000,7.000000,-2.000000]: -2.000000 0.215250 -1.548584
Solutions [3.000000,10.000000,7.000000,-3.000000]: 0.294103
Solutions [3.000000,10.000000,7.000000,-4.000000]: 0.362858
Solutions [3.000000,10.000000,7.000000,-5.000000]: 0.424325
Solutions [3.000000,10.000000,7.500000,-1.000000]: -2.000000 0.115069 -1.448403
Solutions [3.000000,10.000000,7.500000,-2.000000]: 0.206368
Solutions [3.000000,10.000000,7.500000,-3.000000]: 0.283620
Solutions [3.000000,10.000000,7.500000,-4.000000]: 0.351368
Solutions [3.000000,10.000000,7.500000,-5.000000]: 0.412160
Solutions [3.000000,10.000000,8.000000,-1.000000]: 0.109515
Solutions [3.000000,10.000000,8.000000,-2.000000]: 0.198055
Solutions [3.000000,10.000000,8.000000,-3.000000]: 0.273684
Solutions [3.000000,10.000000,8.000000,-4.000000]: 0.340384
Solutions [3.000000,10.000000,8.000000,-5.000000]: 0.400459
Solutions [3.000000,10.000000,8.500000,-1.000000]: 0.104418
Solutions [3.000000,10.000000,8.500000,-2.000000]: 0.190271
Solutions [3.000000,10.000000,8.500000,-3.000000]: 0.264267
Solutions [3.000000,10.000000,8.500000,-4.000000]: 0.329887
Solutions [3.000000,10.000000,8.500000,-5.000000]: 0.389210
Solutions [3.000000,10.000000,9.000000,-1.000000]: 0.099729
Solutions [3.000000,10.000000,9.000000,-2.000000]: 0.182979
Solutions [3.000000,10.000000,9.000000,-3.000000]: 0.255341
Solutions [3.000000,10.000000,9.000000,-4.000000]: 0.319859
Solutions [3.000000,10.000000,9.000000,-5.000000]: 0.378399
Solutions [3.000000,10.000000,9.500000,-1.000000]: 0.095407
Solutions [3.000000,10.000000,9.500000,-2.000000]: 0.176142
Solutions [3.000000,10.000000,9.500000,-3.000000]: 0.246880
Solutions [3.000000,10.000000,9.500000,-4.000000]: 0.310279
Solutions [3.000000,10.000000,9.500000,-5.000000]: 0.368014
Solutions [3.000000,9.000000,5.000000,-1.000000]: -2.154701 0.154701 -1.000000
Solutions [3.000000,9.000000,5.000000,-2.000000]: -2.000000 0.263763 -1.263763
Solutions [3.000000,9.000000,5.000000,-3.000000]: 0.351520
Solutions [3.000000,9.000000,5.000000,-4.000000]: 0.426335
Solutions [3.000000,9.000000,5.000000,-5.000000]: 0.492258
Solutions [3.000000,9.000000,5.500000,-1.000000]: -2.000000 0.145497 -1.145497
Solutions [3.000000,9.000000,5.500000,-2.000000]: 0.251477
Solutions [3.000000,9.000000,5.500000,-3.000000]: 0.337759
Solutions [3.000000,9.000000,5.500000,-4.000000]: 0.411758
Solutions [3.000000,9.000000,5.500000,-5.000000]: 0.477195
Solutions [3.000000,9.000000,6.000000,-1.000000]: -1.742227 0.137158 -1.394931
Solutions [3.000000,9.000000,6.000000,-2.000000]: 0.240012
Solutions [3.000000,9.000000,6.000000,-3.000000]: 0.324718
Solutions [3.000000,9.000000,6.000000,-4.000000]: 0.397810
Solutions [3.000000,9.000000,6.000000,-5.000000]: 0.462688
Solutions [3.000000,9.000000,6.500000,-1.000000]: 0.129589
Solutions [3.000000,9.000000,6.500000,-2.000000]: 0.229316
Solutions [3.000000,9.000000,6.500000,-3.000000]: 0.312369
Solutions [3.000000,9.000000,6.500000,-4.000000]: 0.384477
Solutions [3.000000,9.000000,6.500000,-5.000000]: 0.448728
Solutions [3.000000,9.000000,7.000000,-1.000000]: 0.122706
Solutions [3.000000,9.000000,7.000000,-2.000000]: 0.219338
Solutions [3.000000,9.000000,7.000000,-3.000000]: 0.300681
Solutions [3.000000,9.000000,7.000000,-4.000000]: 0.371739
Solutions [3.000000,9.000000,7.000000,-5.000000]: 0.435305
Solutions [3.000000,9.000000,7.500000,-1.000000]: 0.116434
Solutions [3.000000,9.000000,7.500000,-2.000000]: 0.210027
Solutions [3.000000,9.000000,7.500000,-3.000000]: 0.289624
Solutions [3.000000,9.000000,7.500000,-4.000000]: 0.359579
Solutions [3.000000,9.000000,7.500000,-5.000000]: 0.422406
Solutions [3.000000,9.000000,8.000000,-1.000000]: 0.110704
Solutions [3.000000,9.000000,8.000000,-2.000000]: 0.201336
Solutions [3.000000,9.000000,8.000000,-3.000000]: 0.279166
Solutions [3.000000,9.000000,8.000000,-4.000000]: 0.347976
Solutions [3.000000,9.000000,8.000000,-5.000000]: 0.410020
Solutions [3.000000,9.000000,8.500000,-1.000000]: 0.105458
Solutions [3.000000,9.000000,8.500000,-2.000000]: 0.193219
Solutions [3.000000,9.000000,8.500000,-3.000000]: 0.269275
Solutions [3.000000,9.000000,8.500000,-4.000000]: 0.336908
Solutions [3.000000,9.000000,8.500000,-5.000000]: 0.398130
Solutions [3.000000,9.000000,9.000000,-1.000000]: 0.100642
Solutions [3.000000,9.000000,9.000000,-2.000000]: 0.185631
Solutions [3.000000,9.000000,9.000000,-3.000000]: 0.259921
Solutions [3.000000,9.000000,9.000000,-4.000000]: 0.326352
Solutions [3.000000,9.000000,9.000000,-5.000000]: 0.386723
Solutions [3.000000,9.000000,9.500000,-1.000000]: 0.096212
Solutions [3.000000,9.000000,9.500000,-2.000000]: 0.178533
Solutions [3.000000,9.000000,9.500000,-3.000000]: 0.251072
Solutions [3.000000,9.000000,9.500000,-4.000000]: 0.316288
Solutions [3.000000,9.000000,9.500000,-5.000000]: 0.375780
Solutions [3.000000,8.000000,5.000000,-1.000000]: 0.157801
Solutions [3.000000,8.000000,5.000000,-2.000000]: 0.270776
Solutions [3.000000,8.000000,5.000000,-3.000000]: 0.361944
Solutions [3.000000,8.000000,5.000000,-4.000000]: 0.439684
Solutions [3.000000,8.000000,5.000000,-5.000000]: 0.508142
Solutions [3.000000,8.000000,5.500000,-1.000000]: 0.148129
Solutions [3.000000,8.000000,5.500000,-2.000000]: 0.257703
Solutions [3.000000,8.000000,5.500000,-3.000000]: 0.347237
Solutions [3.000000,8.000000,5.500000,-4.000000]: 0.424080
Solutions [3.000000,8.000000,5.500000,-5.000000]: 0.492013
Solutions [3.000000,8.000000,6.000000,-1.000000]: 0.139402
Solutions [3.000000,8.000000,6.000000,-2.000000]: 0.245543
Solutions [3.000000,8.000000,6.000000,-3.000000]: 0.333333
Solutions [3.000000,8.000000,6.000000,-4.000000]: 0.409178
Solutions [3.000000,8.000000,6.000000,-5.000000]: 0.476501
Solutions [3.000000,8.000000,6.500000,-1.000000]: 0.131510
Solutions [3.000000,8.000000,6.500000,-2.000000]: 0.234234
Solutions [3.000000,8.000000,6.500000,-3.000000]: 0.320199
Solutions [3.000000,8.000000,6.500000,-4.000000]: 0.394959
Solutions [3.000000,8.000000,6.500000,-5.000000]: 0.461596
Solutions [3.000000,8.000000,7.000000,-1.000000]: 0.124359
Solutions [3.000000,8.000000,7.000000,-2.000000]: 0.223717
Solutions [3.000000,8.000000,7.000000,-3.000000]: 0.307799
Solutions [3.000000,8.000000,7.000000,-4.000000]: 0.381402
Solutions [3.000000,8.000000,7.000000,-5.000000]: 0.447287
Solutions [3.000000,8.000000,7.500000,-1.000000]: 0.117861
Solutions [3.000000,8.000000,7.500000,-2.000000]: 0.213932
Solutions [3.000000,8.000000,7.500000,-3.000000]: 0.296097
Solutions [3.000000,8.000000,7.500000,-4.000000]: 0.368486
Solutions [3.000000,8.000000,7.500000,-5.000000]: 0.433561
Solutions [3.000000,8.000000,8.000000,-1.000000]: 0.111943
Solutions [3.000000,8.000000,8.000000,-2.000000]: 0.204825
Solutions [3.000000,8.000000,8.000000,-3.000000]: 0.285057
Solutions [3.000000,8.000000,8.000000,-4.000000]: 0.356186
Solutions [3.000000,8.000000,8.000000,-5.000000]: 0.420401
Solutions [3.000000,8.000000,8.500000,-1.000000]: 0.106538
Solutions [3.000000,8.000000,8.500000,-2.000000]: 0.196341
Solutions [3.000000,8.000000,8.500000,-3.000000]: 0.274640
Solutions [3.000000,8.000000,8.500000,-4.000000]: 0.344477
Solutions [3.000000,8.000000,8.500000,-5.000000]: 0.407790
Solutions [3.000000,8.000000,9.000000,-1.000000]: 0.101588
Solutions [3.000000,8.000000,9.000000,-2.000000]: 0.188431
Solutions [3.000000,8.000000,9.000000,-3.000000]: 0.264810
Solutions [3.000000,8.000000,9.000000,-4.000000]: 0.333333
Solutions [3.000000,8.000000,9.000000,-5.000000]: 0.395712
Solutions [3.000000,8.000000,9.500000,-1.000000]: 0.097044
Solutions [3.000000,8.000000,9.500000,-2.000000]: 0.181049
Solutions [3.000000,8.000000,9.500000,-3.000000]: 0.255533
Solutions [3.000000,8.000000,9.500000,-4.000000]: 0.322729
Solutions [3.000000,8.000000,9.500000,-5.000000]: 0.384146
Solutions [3.000000,7.000000,5.000000,-1.000000]: 0.161138
Solutions [3.000000,7.000000,5.000000,-2.000000]: 0.278475
Solutions [3.000000,7.000000,5.000000,-3.000000]: 0.373471
Solutions [3.000000,7.000000,5.000000,-4.000000]: 0.454489
Solutions [3.000000,7.000000,5.000000,-5.000000]: 0.525776
Solutions [3.000000,7.000000,5.500000,-1.000000]: 0.150944
Solutions [3.000000,7.000000,5.500000,-2.000000]: 0.264502
Solutions [3.000000,7.000000,5.500000,-3.000000]: 0.357674
Solutions [3.000000,7.000000,5.500000,-4.000000]: 0.437701
Solutions [3.000000,7.000000,5.500000,-5.000000]: 0.508419
Solutions [3.000000,7.000000,6.000000,-1.000000]: 0.141787
Solutions [3.000000,7.000000,6.000000,-2.000000]: 0.251551
Solutions [3.000000,7.000000,6.000000,-3.000000]: 0.342780
Solutions [3.000000,7.000000,6.000000,-4.000000]: 0.421701
Solutions [3.000000,7.000000,6.000000,-5.000000]: 0.491752
Solutions [3.000000,7.000000,6.500000,-1.000000]: 0.133542
Solutions [3.000000,7.000000,6.500000,-2.000000]: 0.239550
Solutions [3.000000,7.000000,6.500000,-3.000000]: 0.328750
Solutions [3.000000,7.000000,6.500000,-4.000000]: 0.406466
Solutions [3.000000,7.000000,6.500000,-5.000000]: 0.475764
Solutions [3.000000,7.000000,7.000000,-1.000000]: 0.126097
Solutions [3.000000,7.000000,7.000000,-2.000000]: 0.228427
Solutions [3.000000,7.000000,7.000000,-3.000000]: 0.315541
Solutions [3.000000,7.000000,7.000000,-4.000000]: 0.391974
Solutions [3.000000,7.000000,7.000000,-5.000000]: 0.460442
Solutions [3.000000,7.000000,7.500000,-1.000000]: 0.119357
Solutions [3.000000,7.000000,7.500000,-2.000000]: 0.218114
Solutions [3.000000,7.000000,7.500000,-3.000000]: 0.303110
Solutions [3.000000,7.000000,7.500000,-4.000000]: 0.378198
Solutions [3.000000,7.000000,7.500000,-5.000000]: 0.445771
Solutions [3.000000,7.000000,8.000000,-1.000000]: 0.113236
Solutions [3.000000,7.000000,8.000000,-2.000000]: 0.208544
Solutions [3.000000,7.000000,8.000000,-3.000000]: 0.291413
Solutions [3.000000,7.000000,8.000000,-4.000000]: 0.365108
Solutions [3.000000,7.000000,8.000000,-5.000000]: 0.431731
Solutions [3.000000,7.000000,8.500000,-1.000000]: 0.107661
Solutions [3.000000,7.000000,8.500000,-2.000000]: 0.199657
Solutions [3.000000,7.000000,8.500000,-3.000000]: 0.280407
Solutions [3.000000,7.000000,8.500000,-4.000000]: 0.352676
Solutions [3.000000,7.000000,8.500000,-5.000000]: 0.418303
Solutions [3.000000,7.000000,9.000000,-1.000000]: 0.102569
Solutions [3.000000,7.000000,9.000000,-2.000000]: 0.191394
Solutions [3.000000,7.000000,9.000000,-3.000000]: 0.270048
Solutions [3.000000,7.000000,9.000000,-4.000000]: 0.340870
Solutions [3.000000,7.000000,9.000000,-5.000000]: 0.405467
Solutions [3.000000,7.000000,9.500000,-1.000000]: 0.097904
Solutions [3.000000,7.000000,9.500000,-2.000000]: 0.183703
Solutions [3.000000,7.000000,9.500000,-3.000000]: 0.260296
Solutions [3.000000,7.000000,9.500000,-4.000000]: 0.329661
Solutions [3.000000,7.000000,9.500000,-5.000000]: 0.393199
Solutions [3.000000,6.000000,5.000000,-1.000000]: 0.164747
Solutions [3.000000,6.000000,5.000000,-2.000000]: 0.286985
Solutions [3.000000,6.000000,5.000000,-3.000000]: 0.386318
Solutions [3.000000,6.000000,5.000000,-4.000000]: 0.471039
Solutions [3.000000,6.000000,5.000000,-5.000000]: 0.545507
Solutions [3.000000,6.000000,5.500000,-1.000000]: 0.153967
Solutions [3.000000,6.000000,5.500000,-2.000000]: 0.271971
Solutions [3.000000,6.000000,5.500000,-3.000000]: 0.369251
Solutions [3.000000,6.000000,5.500000,-4.000000]: 0.452872
Solutions [3.000000,6.000000,5.500000,-5.000000]: 0.526723
Solutions [3.000000,6.000000,6.000000,-1.000000]: 0.144332
Solutions [3.000000,6.000000,6.000000,-2.000000]: 0.258113
Solutions [3.000000,6.000000,6.000000,-3.000000]: 0.353210
Solutions [3.000000,6.000000,6.000000,-4.000000]: 0.435596
Solutions [3.000000,6.000000,6.000000,-5.000000]: 0.508716
Solutions [3.000000,6.000000,6.500000,-1.000000]: 0.135696
Solutions [3.000000,6.000000,6.500000,-2.000000]: 0.245324
Solutions [3.000000,6.000000,6.500000,-3.000000]: 0.338146
Solutions [3.000000,6.000000,6.500000,-4.000000]: 0.419187
Solutions [3.000000,6.000000,6.500000,-5.000000]: 0.491474
Solutions [3.000000,6.000000,7.000000,-1.000000]: 0.127931
Solutions [3.000000,6.000000,7.000000,-2.000000]: 0.233517
Solutions [3.000000,6.000000,7.000000,-3.000000]: 0.324009
Solutions [3.000000,6.000000,7.000000,-4.000000]: 0.403616
Solutions [3.000000,6.000000,7.000000,-5.000000]: 0.474982
Solutions [3.000000,6.000000,7.500000,-1.000000]: 0.120927
Solutions [3.000000,6.000000,7.500000,-2.000000]: 0.222610
Solutions [3.000000,6.000000,7.500000,-3.000000]: 0.310747
Solutions [3.000000,6.000000,7.500000,-4.000000]: 0.388851
Solutions [3.000000,6.000000,7.500000,-5.000000]: 0.459222
Solutions [3.000000,6.000000,8.000000,-1.000000]: 0.114588
Solutions [3.000000,6.000000,8.000000,-2.000000]: 0.212525
Solutions [3.000000,6.000000,8.000000,-3.000000]: 0.298306
Solutions [3.000000,6.000000,8.000000,-4.000000]: 0.374858
Solutions [3.000000,6.000000,8.000000,-5.000000]: 0.444172
Solutions [3.000000,6.000000,8.500000,-1.000000]: 0.108831
Solutions [3.000000,6.000000,8.500000,-2.000000]: 0.203190
Solutions [3.000000,6.000000,8.500000,-3.000000]: 0.286635
Solutions [3.000000,6.000000,8.500000,-4.000000]: 0.361602
Solutions [3.000000,6.000000,8.500000,-5.000000]: 0.429809
Solutions [3.000000,6.000000,9.000000,-1.000000]: 0.103587
Solutions [3.000000,6.000000,9.000000,-2.000000]: 0.194538
Solutions [3.000000,6.000000,9.000000,-3.000000]: 0.275682
Solutions [3.000000,6.000000,9.000000,-4.000000]: 0.349047
Solutions [3.000000,6.000000,9.000000,-5.000000]: 0.416109
Solutions [3.000000,6.000000,9.500000,-1.000000]: 0.098794
Solutions [3.000000,6.000000,9.500000,-2.000000]: 0.186508
Solutions [3.000000,6.000000,9.500000,-3.000000]: 0.265400
Solutions [3.000000,6.000000,9.500000,-4.000000]: 0.337156
Solutions [3.000000,6.000000,9.500000,-5.000000]: 0.403044
Solutions [4.000000,10.000000,5.000000,-1.000000]: -1.651388 0.151388 -1.000000
Solutions [4.000000,10.000000,5.000000,-2.000000]: 0.255774
Solutions [4.000000,10.000000,5.000000,-3.000000]: 0.338997
Solutions [4.000000,10.000000,5.000000,-4.000000]: 0.409561
Solutions [4.000000,10.000000,5.000000,-5.000000]: 0.471506
Solutions [4.000000,10.000000,5.500000,-1.000000]: 0.142688
Solutions [4.000000,10.000000,5.500000,-2.000000]: 0.244408
Solutions [4.000000,10.000000,5.500000,-3.000000]: 0.326425
Solutions [4.000000,10.000000,5.500000,-4.000000]: 0.396356
Solutions [4.000000,10.000000,5.500000,-5.000000]: 0.457946
Solutions [4.000000,10.000000,6.000000,-1.000000]: 0.134765
Solutions [4.000000,10.000000,6.000000,-2.000000]: 0.233752
Solutions [4.000000,10.000000,6.000000,-3.000000]: 0.314461
Solutions [4.000000,10.000000,6.000000,-4.000000]: 0.383673
Solutions [4.000000,10.000000,6.000000,-5.000000]: 0.444842
Solutions [4.000000,10.000000,6.500000,-1.000000]: 0.127543
Solutions [4.000000,10.000000,6.500000,-2.000000]: 0.223765
Solutions [4.000000,10.000000,6.500000,-3.000000]: 0.303083
Solutions [4.000000,10.000000,6.500000,-4.000000]: 0.371503
Solutions [4.000000,10.000000,6.500000,-5.000000]: 0.432188
Solutions [4.000000,10.000000,7.000000,-1.000000]: 0.120948
Solutions [4.000000,10.000000,7.000000,-2.000000]: 0.214409
Solutions [4.000000,10.000000,7.000000,-3.000000]: 0.292272
Solutions [4.000000,10.000000,7.000000,-4.000000]: 0.359833
Solutions [4.000000,10.000000,7.000000,-5.000000]: 0.419980
Solutions [4.000000,10.000000,7.500000,-1.000000]: 0.114916
Solutions [4.000000,10.000000,7.500000,-2.000000]: 0.205643
Solutions [4.000000,10.000000,7.500000,-3.000000]: 0.282004
Solutions [4.000000,10.000000,7.500000,-4.000000]: 0.348652
Solutions [4.000000,10.000000,7.500000,-5.000000]: 0.408209
Solutions [4.000000,10.000000,8.000000,-1.000000]: 0.109388
Solutions [4.000000,10.000000,8.000000,-2.000000]: 0.197429
Solutions [4.000000,10.000000,8.000000,-3.000000]: 0.272256
Solutions [4.000000,10.000000,8.000000,-4.000000]: 0.337944
Solutions [4.000000,10.000000,8.000000,-5.000000]: 0.396867
Solutions [4.000000,10.000000,8.500000,-1.000000]: 0.104312
Solutions [4.000000,10.000000,8.500000,-2.000000]: 0.189730
Solutions [4.000000,10.000000,8.500000,-3.000000]: 0.263003
Solutions [4.000000,10.000000,8.500000,-4.000000]: 0.327695
Solutions [4.000000,10.000000,8.500000,-5.000000]: 0.385944
Solutions [4.000000,10.000000,9.000000,-1.000000]: 0.099640
Solutions [4.000000,10.000000,9.000000,-2.000000]: 0.182509
Solutions [4.000000,10.000000,9.000000,-3.000000]: 0.254222
Solutions [4.000000,10.000000,9.000000,-4.000000]: 0.317887
Solutions [4.000000,10.000000,9.000000,-5.000000]: 0.375429
Solutions [4.000000,10.000000,9.500000,-1.000000]: 0.095332
Solutions [4.000000,10.000000,9.500000,-2.000000]: 0.175734
Solutions [4.000000,10.000000,9.500000,-3.000000]: 0.245887
Solutions [4.000000,10.000000,9.500000,-4.000000]: 0.308505
Solutions [4.000000,10.000000,9.500000,-5.000000]: 0.365312
Solutions [4.000000,9.000000,5.000000,-1.000000]: 0.154242
Solutions [4.000000,9.000000,5.000000,-2.000000]: 0.262025
Solutions [4.000000,9.000000,5.000000,-3.000000]: 0.348117
Solutions [4.000000,9.000000,5.000000,-4.000000]: 0.421092
Solutions [4.000000,9.000000,5.000000,-5.000000]: 0.485099
Solutions [4.000000,9.000000,5.500000,-1.000000]: 0.145129
Solutions [4.000000,9.000000,5.500000,-2.000000]: 0.250000
Solutions [4.000000,9.000000,5.500000,-3.000000]: 0.334774
Solutions [4.000000,9.000000,5.500000,-4.000000]: 0.407066
Solutions [4.000000,9.000000,5.500000,-5.000000]: 0.470698
Solutions [4.000000,9.000000,6.000000,-1.000000]: 0.136861
Solutions [4.000000,9.000000,6.000000,-2.000000]: 0.238755
Solutions [4.000000,9.000000,6.000000,-3.000000]: 0.322100
Solutions [4.000000,9.000000,6.000000,-4.000000]: 0.393614
Solutions [4.000000,9.000000,6.000000,-5.000000]: 0.456796
Solutions [4.000000,9.000000,6.500000,-1.000000]: 0.129348
Solutions [4.000000,9.000000,6.500000,-2.000000]: 0.228243
Solutions [4.000000,9.000000,6.500000,-3.000000]: 0.310071
Solutions [4.000000,9.000000,6.500000,-4.000000]: 0.380723
Solutions [4.000000,9.000000,6.500000,-5.000000]: 0.443386
Solutions [4.000000,9.000000,7.000000,-1.000000]: 0.122510
Solutions [4.000000,9.000000,7.000000,-2.000000]: 0.218421
Solutions [4.000000,9.000000,7.000000,-3.000000]: 0.298663
Solutions [4.000000,9.000000,7.000000,-4.000000]: 0.368383
Solutions [4.000000,9.000000,7.000000,-5.000000]: 0.430464
Solutions [4.000000,9.000000,7.500000,-1.000000]: 0.116272
Solutions [4.000000,9.000000,7.500000,-2.000000]: 0.209242
Solutions [4.000000,9.000000,7.500000,-3.000000]: 0.287850
Solutions [4.000000,9.000000,7.500000,-4.000000]: 0.356577
Solutions [4.000000,9.000000,7.500000,-5.000000]: 0.418020
Solutions [4.000000,9.000000,8.000000,-1.000000]: 0.110570
Solutions [4.000000,9.000000,8.000000,-2.000000]: 0.200662
Solutions [4.000000,9.000000,8.000000,-3.000000]: 0.277605
Solutions [4.000000,9.000000,8.000000,-4.000000]: 0.345289
Solutions [4.000000,9.000000,8.000000,-5.000000]: 0.406045
Solutions [4.000000,9.000000,8.500000,-1.000000]: 0.105346
Solutions [4.000000,9.000000,8.500000,-2.000000]: 0.192638
Solutions [4.000000,9.000000,8.500000,-3.000000]: 0.267901
Solutions [4.000000,9.000000,8.500000,-4.000000]: 0.334502
Solutions [4.000000,9.000000,8.500000,-5.000000]: 0.394528
Solutions [4.000000,9.000000,9.000000,-1.000000]: 0.100549
Solutions [4.000000,9.000000,9.000000,-2.000000]: 0.185129
Solutions [4.000000,9.000000,9.000000,-3.000000]: 0.258708
Solutions [4.000000,9.000000,9.000000,-4.000000]: 0.324197
Solutions [4.000000,9.000000,9.000000,-5.000000]: 0.383457
Solutions [4.000000,9.000000,9.500000,-1.000000]: 0.096134
Solutions [4.000000,9.000000,9.500000,-2.000000]: 0.178098
Solutions [4.000000,9.000000,9.500000,-3.000000]: 0.250000
Solutions [4.000000,9.000000,9.500000,-4.000000]: 0.314355
Solutions [4.000000,9.000000,9.500000,-5.000000]: 0.372819
Solutions [4.000000,8.000000,5.000000,-1.000000]: 0.157298
Solutions [4.000000,8.000000,5.000000,-2.000000]: 0.268828
Solutions [4.000000,8.000000,5.000000,-3.000000]: 0.358094
Solutions [4.000000,8.000000,5.000000,-4.000000]: 0.433730
Solutions [4.000000,8.000000,5.000000,-5.000000]: 0.500000
Solutions [4.000000,8.000000,5.500000,-1.000000]: 0.147729
Solutions [4.000000,8.000000,5.500000,-2.000000]: 0.256058
Solutions [4.000000,8.000000,5.500000,-3.000000]: 0.343878
Solutions [4.000000,8.000000,5.500000,-4.000000]: 0.418774
Solutions [4.000000,8.000000,5.500000,-5.000000]: 0.484649
Solutions [4.000000,8.000000,6.000000,-1.000000]: 0.139082
Solutions [4.000000,8.000000,6.000000,-2.000000]: 0.244151
Solutions [4.000000,8.000000,6.000000,-3.000000]: 0.330401
Solutions [4.000000,8.000000,6.000000,-4.000000]: 0.404452
Solutions [4.000000,8.000000,6.000000,-5.000000]: 0.469846
Solutions [4.000000,8.000000,6.500000,-1.000000]: 0.131252
Solutions [4.000000,8.000000,6.500000,-2.000000]: 0.233054
Solutions [4.000000,8.000000,6.500000,-3.000000]: 0.317639
Solutions [4.000000,8.000000,6.500000,-4.000000]: 0.390750
Solutions [4.000000,8.000000,6.500000,-5.000000]: 0.455585
Solutions [4.000000,8.000000,7.000000,-1.000000]: 0.124149
Solutions [4.000000,8.000000,7.000000,-2.000000]: 0.222714
Solutions [4.000000,8.000000,7.000000,-3.000000]: 0.305562
Solutions [4.000000,8.000000,7.000000,-4.000000]: 0.377654
Solutions [4.000000,8.000000,7.000000,-5.000000]: 0.441859
Solutions [4.000000,8.000000,7.500000,-1.000000]: 0.117690
Solutions [4.000000,8.000000,7.500000,-2.000000]: 0.213078
Solutions [4.000000,8.000000,7.500000,-3.000000]: 0.294141
Solutions [4.000000,8.000000,7.500000,-4.000000]: 0.365147
Solutions [4.000000,8.000000,7.500000,-5.000000]: 0.428659
Solutions [4.000000,8.000000,8.000000,-1.000000]: 0.111802
Solutions [4.000000,8.000000,8.000000,-2.000000]: 0.204095
Solutions [4.000000,8.000000,8.000000,-3.000000]: 0.283343
Solutions [4.000000,8.000000,8.000000,-4.000000]: 0.353210
Solutions [4.000000,8.000000,8.000000,-5.000000]: 0.415975
Solutions [4.000000,8.000000,8.500000,-1.000000]: 0.106421
Solutions [4.000000,8.000000,8.500000,-2.000000]: 0.195715
Solutions [4.000000,8.000000,8.500000,-3.000000]: 0.273137
Solutions [4.000000,8.000000,8.500000,-4.000000]: 0.341823
Solutions [4.000000,8.000000,8.500000,-5.000000]: 0.403794
Solutions [4.000000,8.000000,9.000000,-1.000000]: 0.101491
Solutions [4.000000,8.000000,9.000000,-2.000000]: 0.187893
Solutions [4.000000,8.000000,9.000000,-3.000000]: 0.263490
Solutions [4.000000,8.000000,9.000000,-4.000000]: 0.330965
Solutions [4.000000,8.000000,9.000000,-5.000000]: 0.392102
Solutions [4.000000,8.000000,9.500000,-1.000000]: 0.096962
Solutions [4.000000,8.000000,9.500000,-2.000000]: 0.180585
Solutions [4.000000,8.000000,9.500000,-3.000000]: 0.254371
Solutions [4.000000,8.000000,9.500000,-4.000000]: 0.320614
Solutions [4.000000,8.000000,9.500000,-5.000000]: 0.380884
Solutions [4.000000,7.000000,5.000000,-1.000000]: 0.160585
Solutions [4.000000,7.000000,5.000000,-2.000000]: 0.276273
Solutions [4.000000,7.000000,5.000000,-3.000000]: 0.369076
Solutions [4.000000,7.000000,5.000000,-4.000000]: 0.447664
Solutions [4.000000,7.000000,5.000000,-5.000000]: 0.516431
Solutions [4.000000,7.000000,5.500000,-1.000000]: 0.150508
Solutions [4.000000,7.000000,5.500000,-2.000000]: 0.262655
Solutions [4.000000,7.000000,5.500000,-3.000000]: 0.353861
Solutions [4.000000,7.000000,5.500000,-4.000000]: 0.431648
Solutions [4.000000,7.000000,5.500000,-5.000000]: 0.500000
Solutions [4.000000,7.000000,6.000000,-1.000000]: 0.141441
Solutions [4.000000,7.000000,6.000000,-2.000000]: 0.250000
Solutions [4.000000,7.000000,6.000000,-3.000000]: 0.339472
Solutions [4.000000,7.000000,6.000000,-4.000000]: 0.416334
Solutions [4.000000,7.000000,6.000000,-5.000000]: 0.484172
Solutions [4.000000,7.000000,6.500000,-1.000000]: 0.133264
Solutions [4.000000,7.000000,6.500000,-2.000000]: 0.238244
Solutions [4.000000,7.000000,6.500000,-3.000000]: 0.325877
Solutions [4.000000,7.000000,6.500000,-4.000000]: 0.401709
Solutions [4.000000,7.000000,6.500000,-5.000000]: 0.468944
Solutions [4.000000,7.000000,7.000000,-1.000000]: 0.125873
Solutions [4.000000,7.000000,7.000000,-2.000000]: 0.227325
Solutions [4.000000,7.000000,7.000000,-3.000000]: 0.313045
Solutions [4.000000,7.000000,7.000000,-4.000000]: 0.387757
Solutions [4.000000,7.000000,7.000000,-5.000000]: 0.454308
Solutions [4.000000,7.000000,7.500000,-1.000000]: 0.119175
Solutions [4.000000,7.000000,7.500000,-2.000000]: 0.217180
Solutions [4.000000,7.000000,7.500000,-3.000000]: 0.300938
Solutions [4.000000,7.000000,7.500000,-4.000000]: 0.374459
Solutions [4.000000,7.000000,7.500000,-5.000000]: 0.440254
Solutions [4.000000,7.000000,8.000000,-1.000000]: 0.113087
Solutions [4.000000,7.000000,8.000000,-2.000000]: 0.207751
Solutions [4.000000,7.000000,8.000000,-3.000000]: 0.289521
Solutions [4.000000,7.000000,8.000000,-4.000000]: 0.361791
Solutions [4.000000,7.000000,8.000000,-5.000000]: 0.426770
Solutions [4.000000,7.000000,8.500000,-1.000000]: 0.107538
Solutions [4.000000,7.000000,8.500000,-2.000000]: 0.198980
Solutions [4.000000,7.000000,8.500000,-3.000000]: 0.278756
Solutions [4.000000,7.000000,8.500000,-4.000000]: 0.349731
Solutions [4.000000,7.000000,8.500000,-5.000000]: 0.413841
Solutions [4.000000,7.000000,9.000000,-1.000000]: 0.102467
Solutions [4.000000,7.000000,9.000000,-2.000000]: 0.190815
Solutions [4.000000,7.000000,9.000000,-3.000000]: 0.268605
Solutions [4.000000,7.000000,9.000000,-4.000000]: 0.338254
Solutions [4.000000,7.000000,9.000000,-5.000000]: 0.401451
Solutions [4.000000,7.000000,9.500000,-1.000000]: 0.097819
Solutions [4.000000,7.000000,9.500000,-2.000000]: 0.183206
Solutions [4.000000,7.000000,9.500000,-3.000000]: 0.259031
Solutions [4.000000,7.000000,9.500000,-4.000000]: 0.327334
Solutions [4.000000,7.000000,9.500000,-5.000000]: 0.389584
Solutions [4.000000,6.000000,5.000000,-1.000000]: 0.164134
Solutions [4.000000,6.000000,5.000000,-2.000000]: 0.284473
Solutions [4.000000,6.000000,5.000000,-3.000000]: 0.381248
Solutions [4.000000,6.000000,5.000000,-4.000000]: 0.463135
Solutions [4.000000,6.000000,5.000000,-5.000000]: 0.534672
Solutions [4.000000,6.000000,5.500000,-1.000000]: 0.153488
Solutions [4.000000,6.000000,5.500000,-2.000000]: 0.269882
Solutions [4.000000,6.000000,5.500000,-3.000000]: 0.364882
Solutions [4.000000,6.000000,5.500000,-4.000000]: 0.445897
Solutions [4.000000,6.000000,5.500000,-5.000000]: 0.517001
Solutions [4.000000,6.000000,6.000000,-1.000000]: 0.143955
Solutions [4.000000,6.000000,6.000000,-2.000000]: 0.256373
Solutions [4.000000,6.000000,6.000000,-3.000000]: 0.349443
Solutions [4.000000,6.000000,6.000000,-4.000000]: 0.429445
Solutions [4.000000,6.000000,6.000000,-5.000000]: 0.500000
Solutions [4.000000,6.000000,6.500000,-1.000000]: 0.135397
Solutions [4.000000,6.000000,6.500000,-2.000000]: 0.243870
Solutions [4.000000,6.000000,6.500000,-3.000000]: 0.334896
Solutions [4.000000,6.000000,6.500000,-4.000000]: 0.413763
Solutions [4.000000,6.000000,6.500000,-5.000000]: 0.483666
Solutions [4.000000,6.000000,7.000000,-1.000000]: 0.127692
Solutions [4.000000,6.000000,7.000000,-2.000000]: 0.232298
Solutions [4.000000,6.000000,7.000000,-3.000000]: 0.321203
Solutions [4.000000,6.000000,7.000000,-4.000000]: 0.398833
Solutions [4.000000,6.000000,7.000000,-5.000000]: 0.467990
Solutions [4.000000,6.000000,7.500000,-1.000000]: 0.120733
Solutions [4.000000,6.000000,7.500000,-2.000000]: 0.221584
Solutions [4.000000,6.000000,7.500000,-3.000000]: 0.308320
Solutions [4.000000,6.000000,7.500000,-4.000000]: 0.384632
Solutions [4.000000,6.000000,7.500000,-5.000000]: 0.452962
Solutions [4.000000,6.000000,8.000000,-1.000000]: 0.114430
Solutions [4.000000,6.000000,8.000000,-2.000000]: 0.211659
Solutions [4.000000,6.000000,8.000000,-3.000000]: 0.296204
Solutions [4.000000,6.000000,8.000000,-4.000000]: 0.371134
Solutions [4.000000,6.000000,8.000000,-5.000000]: 0.438567
Solutions [4.000000,6.000000,8.500000,-1.000000]: 0.108702
Solutions [4.000000,6.000000,8.500000,-2.000000]: 0.202456
Solutions [4.000000,6.000000,8.500000,-3.000000]: 0.284810
Solutions [4.000000,6.000000,8.500000,-4.000000]: 0.358313
Solutions [4.000000,6.000000,8.500000,-5.000000]: 0.424790
Solutions [4.000000,6.000000,9.000000,-1.000000]: 0.103480
Solutions [4.000000,6.000000,9.000000,-2.000000]: 0.193913
Solutions [4.000000,6.000000,9.000000,-3.000000]: 0.274096
Solutions [4.000000,6.000000,9.000000,-4.000000]: 0.346138
Solutions [4.000000,6.000000,9.000000,-5.000000]: 0.411612
Solutions [4.000000,6.000000,9.500000,-1.000000]: 0.098705
Solutions [4.000000,6.000000,9.500000,-2.000000]: 0.185974
Solutions [4.000000,6.000000,9.500000,-3.000000]: 0.264017
Solutions [4.000000,6.000000,9.500000,-4.000000]: 0.334581
Solutions [4.000000,6.000000,9.500000,-5.000000]: 0.399013
Solutions [5.000000,10.000000,5.000000,-1.000000]: 0.150973
Solutions [5.000000,10.000000,5.000000,-2.000000]: 0.254263
Solutions [5.000000,10.000000,5.000000,-3.000000]: 0.336102
Solutions [5.000000,10.000000,5.000000,-4.000000]: 0.405167
Solutions [5.000000,10.000000,5.000000,-5.000000]: 0.465571
Solutions [5.000000,10.000000,5.500000,-1.000000]: 0.142352
Solutions [5.000000,10.000000,5.500000,-2.000000]: 0.243113
Solutions [5.000000,10.000000,5.500000,-3.000000]: 0.323866
Solutions [5.000000,10.000000,5.500000,-4.000000]: 0.392395
Solutions [5.000000,10.000000,5.500000,-5.000000]: 0.452524
Solutions [5.000000,10.000000,6.000000,-1.000000]: 0.134492
Solutions [5.000000,10.000000,6.000000,-2.000000]: 0.232639
Solutions [5.000000,10.000000,6.000000,-3.000000]: 0.312197
Solutions [5.000000,10.000000,6.000000,-4.000000]: 0.380104
Solutions [5.000000,10.000000,6.000000,-5.000000]: 0.439892
Solutions [5.000000,10.000000,6.500000,-1.000000]: 0.127320
Solutions [5.000000,10.000000,6.500000,-2.000000]: 0.222809
Solutions [5.000000,10.000000,6.500000,-3.000000]: 0.301082
Solutions [5.000000,10.000000,6.500000,-4.000000]: 0.368288
Solutions [5.000000,10.000000,6.500000,-5.000000]: 0.427671
Solutions [5.000000,10.000000,7.000000,-1.000000]: 0.120765
Solutions [5.000000,10.000000,7.000000,-2.000000]: 0.213585
Solutions [5.000000,10.000000,7.000000,-3.000000]: 0.290501
Solutions [5.000000,10.000000,7.000000,-4.000000]: 0.356939
Solutions [5.000000,10.000000,7.000000,-5.000000]: 0.415860
Solutions [5.000000,10.000000,7.500000,-1.000000]: 0.114764
Solutions [5.000000,10.000000,7.500000,-2.000000]: 0.204932
Solutions [5.000000,10.000000,7.500000,-3.000000]: 0.280437
Solutions [5.000000,10.000000,7.500000,-4.000000]: 0.346045
Solutions [5.000000,10.000000,7.500000,-5.000000]: 0.404452
Solutions [5.000000,10.000000,8.000000,-1.000000]: 0.109262
Solutions [5.000000,10.000000,8.000000,-2.000000]: 0.196815
Solutions [5.000000,10.000000,8.000000,-3.000000]: 0.270868
Solutions [5.000000,10.000000,8.000000,-4.000000]: 0.335596
Solutions [5.000000,10.000000,8.000000,-5.000000]: 0.393441
Solutions [5.000000,10.000000,8.500000,-1.000000]: 0.104206
Solutions [5.000000,10.000000,8.500000,-2.000000]: 0.189198
Solutions [5.000000,10.000000,8.500000,-3.000000]: 0.261772
Solutions [5.000000,10.000000,8.500000,-4.000000]: 0.325579
Solutions [5.000000,10.000000,8.500000,-5.000000]: 0.382820
Solutions [5.000000,10.000000,9.000000,-1.000000]: 0.099551
Solutions [5.000000,10.000000,9.000000,-2.000000]: 0.182047
Solutions [5.000000,10.000000,9.000000,-3.000000]: 0.253129
Solutions [5.000000,10.000000,9.000000,-4.000000]: 0.315980
Solutions [5.000000,10.000000,9.000000,-5.000000]: 0.372581
Solutions [5.000000,10.000000,9.500000,-1.000000]: 0.095257
Solutions [5.000000,10.000000,9.500000,-2.000000]: 0.175331
Solutions [5.000000,10.000000,9.500000,-3.000000]: 0.244916
Solutions [5.000000,10.000000,9.500000,-4.000000]: 0.306785
Solutions [5.000000,10.000000,9.500000,-5.000000]: 0.362714
Solutions [5.000000,9.000000,5.000000,-1.000000]: 0.153790
Solutions [5.000000,9.000000,5.000000,-2.000000]: 0.260348
Solutions [5.000000,9.000000,5.000000,-3.000000]: 0.344881
Solutions [5.000000,9.000000,5.000000,-4.000000]: 0.416168
Solutions [5.000000,9.000000,5.000000,-5.000000]: 0.478444
Solutions [5.000000,9.000000,5.500000,-1.000000]: 0.144766
Solutions [5.000000,9.000000,5.500000,-2.000000]: 0.248569
Solutions [5.000000,9.000000,5.500000,-3.000000]: 0.331925
Solutions [5.000000,9.000000,5.500000,-4.000000]: 0.402642
Solutions [5.000000,9.000000,5.500000,-5.000000]: 0.464635
Solutions [5.000000,9.000000,6.000000,-1.000000]: 0.136568
Solutions [5.000000,9.000000,6.000000,-2.000000]: 0.237532
Solutions [5.000000,9.000000,6.000000,-3.000000]: 0.319591
Solutions [5.000000,9.000000,6.000000,-4.000000]: 0.389641
Solutions [5.000000,9.000000,6.000000,-5.000000]: 0.451275
Solutions [5.000000,9.000000,6.500000,-1.000000]: 0.129110
Solutions [5.000000,9.000000,6.500000,-2.000000]: 0.227198
Solutions [5.000000,9.000000,6.500000,-3.000000]: 0.307861
Solutions [5.000000,9.000000,6.500000,-4.000000]: 0.377157
Solutions [5.000000,9.000000,6.500000,-5.000000]: 0.438363
Solutions [5.000000,9.000000,7.000000,-1.000000]: 0.122315
Solutions [5.000000,9.000000,7.000000,-2.000000]: 0.217526
Solutions [5.000000,9.000000,7.000000,-3.000000]: 0.296717
Solutions [5.000000,9.000000,7.000000,-4.000000]: 0.365182
Solutions [5.000000,9.000000,7.000000,-5.000000]: 0.425895
Solutions [5.000000,9.000000,7.500000,-1.000000]: 0.116111
Solutions [5.000000,9.000000,7.500000,-2.000000]: 0.208473
Solutions [5.000000,9.000000,7.500000,-3.000000]: 0.286135
Solutions [5.000000,9.000000,7.500000,-4.000000]: 0.353705
Solutions [5.000000,9.000000,7.500000,-5.000000]: 0.413866
Solutions [5.000000,9.000000,8.000000,-1.000000]: 0.110437
Solutions [5.000000,9.000000,8.000000,-2.000000]: 0.200000
Solutions [5.000000,9.000000,8.000000,-3.000000]: 0.276092
Solutions [5.000000,9.000000,8.000000,-4.000000]: 0.342711
Solutions [5.000000,9.000000,8.000000,-5.000000]: 0.402268
Solutions [5.000000,9.000000,8.500000,-1.000000]: 0.105236
Solutions [5.000000,9.000000,8.500000,-2.000000]: 0.192067
Solutions [5.000000,9.000000,8.500000,-3.000000]: 0.266564
Solutions [5.000000,9.000000,8.500000,-4.000000]: 0.332187
Solutions [5.000000,9.000000,8.500000,-5.000000]: 0.391095
Solutions [5.000000,9.000000,9.000000,-1.000000]: 0.100456
Solutions [5.000000,9.000000,9.000000,-2.000000]: 0.184635
Solutions [5.000000,9.000000,9.000000,-3.000000]: 0.257526
Solutions [5.000000,9.000000,9.000000,-4.000000]: 0.322117
Solutions [5.000000,9.000000,9.000000,-5.000000]: 0.380335
Solutions [5.000000,9.000000,9.500000,-1.000000]: 0.096056
Solutions [5.000000,9.000000,9.500000,-2.000000]: 0.177669
Solutions [5.000000,9.000000,9.500000,-3.000000]: 0.248953
Solutions [5.000000,9.000000,9.500000,-4.000000]: 0.312485
Solutions [5.000000,9.000000,9.500000,-5.000000]: 0.369980
Solutions [5.000000,8.000000,5.000000,-1.000000]: 0.156804
Solutions [5.000000,8.000000,5.000000,-2.000000]: 0.266953
Solutions [5.000000,8.000000,5.000000,-3.000000]: 0.354451
Solutions [5.000000,8.000000,5.000000,-4.000000]: 0.428172
Solutions [5.000000,8.000000,5.000000,-5.000000]: 0.492485
Solutions [5.000000,8.000000,5.500000,-1.000000]: 0.147336
Solutions [5.000000,8.000000,5.500000,-2.000000]: 0.254468
Solutions [5.000000,8.000000,5.500000,-3.000000]: 0.340684
Solutions [5.000000,8.000000,5.500000,-4.000000]: 0.413799
Solutions [5.000000,8.000000,5.500000,-5.000000]: 0.477822
Solutions [5.000000,8.000000,6.000000,-1.000000]: 0.138765
Solutions [5.000000,8.000000,6.000000,-2.000000]: 0.242802
Solutions [5.000000,8.000000,6.000000,-3.000000]: 0.327603
Solutions [5.000000,8.000000,6.000000,-4.000000]: 0.400000
Solutions [5.000000,8.000000,6.000000,-5.000000]: 0.463648
Solutions [5.000000,8.000000,6.500000,-1.000000]: 0.130997
Solutions [5.000000,8.000000,6.500000,-2.000000]: 0.231907
Solutions [5.000000,8.000000,6.500000,-3.000000]: 0.315186
Solutions [5.000000,8.000000,6.500000,-4.000000]: 0.386769
Solutions [5.000000,8.000000,6.500000,-5.000000]: 0.449963
Solutions [5.000000,8.000000,7.000000,-1.000000]: 0.123941
Solutions [5.000000,8.000000,7.000000,-2.000000]: 0.221736
Solutions [5.000000,8.000000,7.000000,-3.000000]: 0.303411
Solutions [5.000000,8.000000,7.000000,-4.000000]: 0.374094
Solutions [5.000000,8.000000,7.000000,-5.000000]: 0.436762
Solutions [5.000000,8.000000,7.500000,-1.000000]: 0.117520
Solutions [5.000000,8.000000,7.500000,-2.000000]: 0.212243
Solutions [5.000000,8.000000,7.500000,-3.000000]: 0.292253
Solutions [5.000000,8.000000,7.500000,-4.000000]: 0.361964
Solutions [5.000000,8.000000,7.500000,-5.000000]: 0.424039
Solutions [5.000000,8.000000,8.000000,-1.000000]: 0.111662
Solutions [5.000000,8.000000,8.000000,-2.000000]: 0.203379
Solutions [5.000000,8.000000,8.000000,-3.000000]: 0.281685
Solutions [5.000000,8.000000,8.000000,-4.000000]: 0.350364
Solutions [5.000000,8.000000,8.000000,-5.000000]: 0.411788
Solutions [5.000000,8.000000,8.500000,-1.000000]: 0.106305
Solutions [5.000000,8.000000,8.500000,-2.000000]: 0.195101
Solutions [5.000000,8.000000,8.500000,-3.000000]: 0.271678
Solutions [5.000000,8.000000,8.500000,-4.000000]: 0.339277
Solutions [5.000000,8.000000,8.500000,-5.000000]: 0.400000
Solutions [5.000000,8.000000,9.000000,-1.000000]: 0.101394
Solutions [5.000000,8.000000,9.000000,-2.000000]: 0.187364
Solutions [5.000000,8.000000,9.000000,-3.000000]: 0.262206
Solutions [5.000000,8.000000,9.000000,-4.000000]: 0.328686
Solutions [5.000000,8.000000,9.000000,-5.000000]: 0.388663
Solutions [5.000000,8.000000,9.500000,-1.000000]: 0.096881
Solutions [5.000000,8.000000,9.500000,-2.000000]: 0.180127
Solutions [5.000000,8.000000,9.500000,-3.000000]: 0.253238
Solutions [5.000000,8.000000,9.500000,-4.000000]: 0.318572
Solutions [5.000000,8.000000,9.500000,-5.000000]: 0.377767
Solutions [5.000000,7.000000,5.000000,-1.000000]: 0.160042
Solutions [5.000000,7.000000,5.000000,-2.000000]: 0.274162
Solutions [5.000000,7.000000,5.000000,-3.000000]: 0.364941
Solutions [5.000000,7.000000,5.000000,-4.000000]: 0.441341
Solutions [5.000000,7.000000,5.000000,-5.000000]: 0.507879
Solutions [5.000000,7.000000,5.500000,-1.000000]: 0.150079
Solutions [5.000000,7.000000,5.500000,-2.000000]: 0.260878
Solutions [5.000000,7.000000,5.500000,-3.000000]: 0.350255
Solutions [5.000000,7.000000,5.500000,-4.000000]: 0.426009
Solutions [5.000000,7.000000,5.500000,-5.000000]: 0.492254
Solutions [5.000000,7.000000,6.000000,-1.000000]: 0.141099
Solutions [5.000000,7.000000,6.000000,-2.000000]: 0.248501
Solutions [5.000000,7.000000,6.000000,-3.000000]: 0.336328
Solutions [5.000000,7.000000,6.000000,-4.000000]: 0.411309
Solutions [5.000000,7.000000,6.000000,-5.000000]: 0.477164
Solutions [5.000000,7.000000,6.500000,-1.000000]: 0.132990
Solutions [5.000000,7.000000,6.500000,-2.000000]: 0.236977
Solutions [5.000000,7.000000,6.500000,-3.000000]: 0.323135
Solutions [5.000000,7.000000,6.500000,-4.000000]: 0.397235
Solutions [5.000000,7.000000,6.500000,-5.000000]: 0.462608
Solutions [5.000000,7.000000,7.000000,-1.000000]: 0.125652
Solutions [5.000000,7.000000,7.000000,-2.000000]: 0.226252
Solutions [5.000000,7.000000,7.000000,-3.000000]: 0.310653
Solutions [5.000000,7.000000,7.000000,-4.000000]: 0.383773
Solutions [5.000000,7.000000,7.000000,-5.000000]: 0.448583
Solutions [5.000000,7.000000,7.500000,-1.000000]: 0.118994
Solutions [5.000000,7.000000,7.500000,-2.000000]: 0.216269
Solutions [5.000000,7.000000,7.500000,-3.000000]: 0.298849
Solutions [5.000000,7.000000,7.500000,-4.000000]: 0.370911
Solutions [5.000000,7.000000,7.500000,-5.000000]: 0.435083
Solutions [5.000000,7.000000,8.000000,-1.000000]: 0.112939
Solutions [5.000000,7.000000,8.000000,-2.000000]: 0.206975
Solutions [5.000000,7.000000,8.000000,-3.000000]: 0.287695
Solutions [5.000000,7.000000,8.000000,-4.000000]: 0.358632
Solutions [5.000000,7.000000,8.000000,-5.000000]: 0.422100
Solutions [5.000000,7.000000,8.500000,-1.000000]: 0.107416
Solutions [5.000000,7.000000,8.500000,-2.000000]: 0.198317
Solutions [5.000000,7.000000,8.500000,-3.000000]: 0.277157
Solutions [5.000000,7.000000,8.500000,-4.000000]: 0.346916
Solutions [5.000000,7.000000,8.500000,-5.000000]: 0.409624
Solutions [5.000000,7.000000,9.000000,-1.000000]: 0.102365
Solutions [5.000000,7.000000,9.000000,-2.000000]: 0.190246
Solutions [5.000000,7.000000,9.000000,-3.000000]: 0.267203
Solutions [5.000000,7.000000,9.000000,-4.000000]: 0.335744
Solutions [5.000000,7.000000,9.000000,-5.000000]: 0.397643
Solutions [5.000000,7.000000,9.500000,-1.000000]: 0.097734
Solutions [5.000000,7.000000,9.500000,-2.000000]: 0.182716
Solutions [5.000000,7.000000,9.500000,-3.000000]: 0.257800
Solutions [5.000000,7.000000,9.500000,-4.000000]: 0.325095
Solutions [5.000000,7.000000,9.500000,-5.000000]: 0.386144
Solutions [5.000000,6.000000,5.000000,-1.000000]: 0.163534
Solutions [5.000000,6.000000,5.000000,-2.000000]: 0.282076
Solutions [5.000000,6.000000,5.000000,-3.000000]: 0.376512
Solutions [5.000000,6.000000,5.000000,-4.000000]: 0.455874
Solutions [5.000000,6.000000,5.000000,-5.000000]: 0.524853
Solutions [5.000000,6.000000,5.500000,-1.000000]: 0.153018
Solutions [5.000000,6.000000,5.500000,-2.000000]: 0.267879
Solutions [5.000000,6.000000,5.500000,-3.000000]: 0.360775
Solutions [5.000000,6.000000,5.500000,-4.000000]: 0.439450
Solutions [5.000000,6.000000,5.500000,-5.000000]: 0.508138
Solutions [5.000000,6.000000,6.000000,-1.000000]: 0.143584
Solutions [5.000000,6.000000,6.000000,-2.000000]: 0.254695
Solutions [5.000000,6.000000,6.000000,-3.000000]: 0.345882
Solutions [5.000000,6.000000,6.000000,-4.000000]: 0.423726
Solutions [5.000000,6.000000,6.000000,-5.000000]: 0.492009
Solutions [5.000000,6.000000,6.500000,-1.000000]: 0.135101
[...]
202 degrees = 3.525565089029 radians
203 degrees = 3.543018381548 radians
204 degrees = 3.560471674068 radians
205 degrees = 3.577924966588 radians
206 degrees = 3.595378259108 radians
207 degrees = 3.612831551628 radians
208 degrees = 3.630284844148 radians
209 degrees = 3.647738136668 radians
210 degrees = 3.665191429188 radians
211 degrees = 3.682644721708 radians
212 degrees = 3.700098014228 radians
213 degrees = 3.717551306748 radians
214 degrees = 3.735004599268 radians
215 degrees = 3.752457891788 radians
216 degrees = 3.769911184308 radians
217 degrees = 3.787364476828 radians
218 degrees = 3.804817769348 radians
219 degrees = 3.822271061868 radians
220 degrees = 3.839724354388 radians
221 degrees = 3.857177646907 radians
222 degrees = 3.874630939427 radians
223 degrees = 3.892084231947 radians
224 degrees = 3.909537524467 radians
225 degrees = 3.926990816987 radians
226 degrees = 3.944444109507 radians
227 degrees = 3.961897402027 radians
228 degrees = 3.979350694547 radians
229 degrees = 3.996803987067 radians
230 degrees = 4.014257279587 radians
231 degrees = 4.031710572107 radians
232 degrees = 4.049163864627 radians
233 degrees = 4.066617157147 radians
234 degrees = 4.084070449667 radians
235 degrees = 4.101523742187 radians
236 degrees = 4.118977034707 radians
237 degrees = 4.136430327227 radians
238 degrees = 4.153883619747 radians
239 degrees = 4.171336912266 radians
240 degrees = 4.188790204786 radians
241 degrees = 4.206243497306 radians
242 degrees = 4.223696789826 radians
243 degrees = 4.241150082346 radians
244 degrees = 4.258603374866 radians
245 degrees = 4.276056667386 radians
246 degrees = 4.293509959906 radians
247 degrees = 4.310963252426 radians
248 degrees = 4.328416544946 radians
249 degrees = 4.345869837466 radians
250 degrees = 4.363323129986 radians
251 degrees = 4.380776422506 radians
252 degrees = 4.398229715026 radians
253 degrees = 4.415683007546 radians
254 degrees = 4.433136300066 radians
255 degrees = 4.450589592586 radians
256 degrees = 4.468042885105 radians
257 degrees = 4.485496177625 radians
258 degrees = 4.502949470145 radians
259 degrees = 4.520402762665 radians
260 degrees = 4.537856055185 radians
261 degrees = 4.555309347705 radians
262 degrees = 4.572762640225 radians
263 degrees = 4.590215932745 radians
264 degrees = 4.607669225265 radians
265 degrees = 4.625122517785 radians
266 degrees = 4.642575810305 radians
267 degrees = 4.660029102825 radians
268 degrees = 4.677482395345 radians
269 degrees = 4.694935687865 radians
270 degrees = 4.712388980385 radians
271 degrees = 4.729842272905 radians
272 degrees = 4.747295565425 radians
273 degrees = 4.764748857945 radians
274 degrees = 4.782202150464 radians
275 degrees = 4.799655442984 radians
276 degrees = 4.817108735504 radians
277 degrees = 4.834562028024 radians
278 degrees = 4.852015320544 radians
279 degrees = 4.869468613064 radians
280 degrees = 4.886921905584 radians
281 degrees = 4.904375198104 radians
282 degrees = 4.921828490624 radians
283 degrees = 4.939281783144 radians
284 degrees = 4.956735075664 radians
285 degrees = 4.974188368184 radians
286 degrees = 4.991641660704 radians
287 degrees = 5.009094953224 radians
288 degrees = 5.026548245744 radians
289 degrees = 5.044001538264 radians
290 degrees = 5.061454830784 radians
291 degrees = 5.078908123303 radians
292 degrees = 5.096361415823 radians
293 degrees = 5.113814708343 radians
294 degrees = 5.131268000863 radians
295 degrees = 5.148721293383 radians
296 degrees = 5.166174585903 radians
297 degrees = 5.183627878423 radians
298 degrees = 5.201081170943 radians
299 degrees = 5.218534463463 radians
300 degrees = 5.235987755983 radians
301 degrees = 5.253441048503 radians
302 degrees = 5.270894341023 radians
303 degrees = 5.288347633543 radians
304 degrees = 5.305800926063 radians
305 degrees = 5.323254218583 radians
306 degrees = 5.340707511103 radians
307 degrees = 5.358160803623 radians
308 degrees = 5.375614096143 radians
309 degrees = 5.393067388662 radians
310 degrees = 5.410520681182 radians
311 degrees = 5.427973973702 radians
312 degrees = 5.445427266222 radians
313 degrees = 5.462880558742 radians
314 degrees = 5.480333851262 radians
315 degrees = 5.497787143782 radians
316 degrees = 5.515240436302 radians
317 degrees = 5.532693728822 radians
318 degrees = 5.550147021342 radians
319 degrees = 5.567600313862 radians
320 degrees = 5.585053606382 radians
321 degrees = 5.602506898902 radians
322 degrees = 5.619960191422 radians
323 degrees = 5.637413483942 radians
324 degrees = 5.654866776462 radians
325 degrees = 5.672320068982 radians
326 degrees = 5.689773361502 radians
327 degrees = 5.707226654021 radians
328 degrees = 5.724679946541 radians
329 degrees = 5.742133239061 radians
330 degrees = 5.759586531581 radians
331 degrees = 5.777039824101 radians
332 degrees = 5.794493116621 radians
333 degrees = 5.811946409141 radians
334 degrees = 5.829399701661 radians
335 degrees = 5.846852994181 radians
336 degrees = 5.864306286701 radians
337 degrees = 5.881759579221 radians
338 degrees = 5.899212871741 radians
339 degrees = 5.916666164261 radians
340 degrees = 5.934119456781 radians
341 degrees = 5.951572749301 radians
342 degrees = 5.969026041821 radians
343 degrees = 5.986479334341 radians
344 degrees = 6.003932626860 radians
345 degrees = 6.021385919380 radians
346 degrees = 6.038839211900 radians
347 degrees = 6.056292504420 radians
348 degrees = 6.073745796940 radians
349 degrees = 6.091199089460 radians
350 degrees = 6.108652381980 radians
351 degrees = 6.126105674500 radians
352 degrees = 6.143558967020 radians
353 degrees = 6.161012259540 radians
354 degrees = 6.178465552060 radians
355 degrees = 6.195918844580 radians
356 degrees = 6.213372137100 radians
357 degrees = 6.230825429620 radians
358 degrees = 6.248278722140 radians
359 degrees = 6.265732014660 radians
360 degrees = 6.283185307180 radians

0.000000000000 radians =   0 degrees
0.017453292520 radians =   1 degrees
0.034906585040 radians =   2 degrees
0.052359877560 radians =   3 degrees
0.069813170080 radians =   4 degrees
0.087266462600 radians =   5 degrees
0.104719755120 radians =   6 degrees
0.122173047640 radians =   7 degrees
0.139626340160 radians =   8 degrees
0.157079632679 radians =   9 degrees
0.174532925199 radians =  10 degrees
0.191986217719 radians =  11 degrees
0.209439510239 radians =  12 degrees
0.226892802759 radians =  13 degrees
0.244346095279 radians =  14 degrees
0.261799387799 radians =  15 degrees
0.279252680319 radians =  16 degrees
0.296705972839 radians =  17 degrees
0.314159265359 radians =  18 degrees
0.331612557879 radians =  19 degrees
0.349065850399 radians =  20 degrees
0.366519142919 radians =  21 degrees
0.383972435439 radians =  22 degrees
0.401425727959 radians =  23 degrees
0.418879020479 radians =  24 degrees
0.436332312999 radians =  25 degrees
0.453785605519 radians =  26 degrees
0.471238898038 radians =  27 degrees
0.488692190558 radians =  28 degrees
0.506145483078 radians =  29 degrees
0.523598775598 radians =  30 degrees
0.541052068118 radians =  31 degrees
0.558505360638 radians =  32 degrees
0.575958653158 radians =  33 degrees
0.593411945678 radians =  34 degrees
0.610865238198 radians =  35 degrees
0.628318530718 radians =  36 degrees
0.645771823238 radians =  37 degrees
0.663225115758 radians =  38 degrees
0.680678408278 radians =  39 degrees
0.698131700798 radians =  40 degrees
0.715584993318 radians =  41 degrees
0.733038285838 radians =  42 degrees
0.750491578358 radians =  43 degrees
0.767944870878 radians =  44 degrees
0.785398163397 radians =  45 degrees
0.802851455917 radians =  46 degrees
0.820304748437 radians =  47 degrees
0.837758040957 radians =  48 degrees
0.855211333477 radians =  49 degrees
0.872664625997 radians =  50 degrees
0.890117918517 radians =  51 degrees
0.907571211037 radians =  52 degrees
0.925024503557 radians =  53 degrees
0.942477796077 radians =  54 degrees
0.959931088597 radians =  55 degrees
0.977384381117 radians =  56 degrees
0.994837673637 radians =  57 degrees
1.012290966157 radians =  58 degrees
1.029744258677 radians =  59 degrees
1.047197551197 radians =  60 degrees
1.064650843717 radians =  61 degrees
1.082104136236 radians =  62 degrees
1.099557428756 radians =  63 degrees
1.117010721276 radians =  64 degrees
1.134464013796 radians =  65 degrees
1.151917306316 radians =  66 degrees
1.169370598836 radians =  67 degrees
1.186823891356 radians =  68 degrees
1.204277183876 radians =  69 degrees
1.221730476396 radians =  70 degrees
1.239183768916 radians =  71 degrees
1.256637061436 radians =  72 degrees
1.274090353956 radians =  73 degrees
1.291543646476 radians =  74 degrees
1.308996938996 radians =  75 degrees
1.326450231516 radians =  76 degrees
1.343903524036 radians =  77 degrees
1.361356816556 radians =  78 degrees
1.378810109076 radians =  79 degrees
1.396263401595 radians =  80 degrees
1.413716694115 radians =  81 degrees
1.431169986635 radians =  82 degrees
1.448623279155 radians =  83 degrees
1.466076571675 radians =  84 degrees
1.483529864195 radians =  85 degrees
1.500983156715 radians =  86 degrees
1.518436449235 radians =  87 degrees
1.535889741755 radians =  88 degrees
1.553343034275 radians =  89 degrees
1.570796326795 radians =  90 degrees
1.588249619315 radians =  91 degrees
1.605702911835 radians =  92 degrees
1.623156204355 radians =  93 degrees
1.640609496875 radians =  94 degrees
1.658062789395 radians =  95 degrees
1.675516081915 radians =  96 degrees
1.692969374435 radians =  97 degrees
1.710422666954 radians =  98 degrees
1.727875959474 radians =  99 degrees
1.745329251994 radians = 100 degrees
1.762782544514 radians = 101 degrees
1.780235837034 radians = 102 degrees
1.797689129554 radians = 103 degrees
1.815142422074 radians = 104 degrees
1.832595714594 radians = 105 degrees
1.850049007114 radians = 106 degrees
1.867502299634 radians = 107 degrees
1.884955592154 radians = 108 degrees
1.902408884674 radians = 109 degrees
1.919862177194 radians = 110 degrees
1.937315469714 radians = 111 degrees
1.954768762234 radians = 112 degrees
1.972222054754 radians = 113 degrees
1.989675347274 radians = 114 degrees
2.007128639793 radians = 115 degrees
2.024581932313 radians = 116 degrees
2.042035224833 radians = 117 degrees
2.059488517353 radians = 118 degrees
2.076941809873 radians = 119 degrees
2.094395102393 radians = 120 degrees
2.111848394913 radians = 121 degrees
2.129301687433 radians = 122 degrees
2.146754979953 radians = 123 degrees
2.164208272473 radians = 124 degrees
2.181661564993 radians = 125 degrees
2.199114857513 radians = 126 degrees
2.216568150033 radians = 127 degrees
2.234021442553 radians = 128 degrees
2.251474735073 radians = 129 degrees
2.268928027593 radians = 130 degrees
2.286381320113 radians = 131 degrees
2.303834612633 radians = 132 degrees
2.321287905152 radians = 133 degrees
2.338741197672 radians = 134 degrees
2.356194490192 radians = 135 degrees
2.373647782712 radians = 136 degrees
2.391101075232 radians = 137 degrees
2.408554367752 radians = 138 degrees
2.426007660272 radians = 139 degrees
2.443460952792 radians = 140 degrees
2.460914245312 radians = 141 degrees
2.478367537832 radians = 142 degrees
2.495820830352 radians = 143 degrees
2.513274122872 radians = 144 degrees
2.530727415392 radians = 145 degrees
2.548180707912 radians = 146 degrees
2.565634000432 radians = 147 degrees
2.583087292952 radians = 148 degrees
2.600540585472 radians = 149 degrees
2.617993877991 radians = 150 degrees
2.635447170511 radians = 151 degrees
2.652900463031 radians = 152 degrees
2.670353755551 radians = 153 degrees
2.687807048071 radians = 154 degrees
2.705260340591 radians = 155 degrees
2.722713633111 radians = 156 degrees
2.740166925631 radians = 157 degrees
2.757620218151 radians = 158 degrees
2.775073510671 radians = 159 degrees
2.792526803191 radians = 160 degrees
2.809980095711 radians = 161 degrees
2.827433388231 radians = 162 degrees
2.844886680751 radians = 163 degrees
2.862339973271 radians = 164 degrees
2.879793265791 radians = 165 degrees
2.897246558311 radians = 166 degrees
2.914699850831 radians = 167 degrees
2.932153143350 radians = 168 degrees
2.949606435870 radians = 169 degrees
2.967059728390 radians = 170 degrees
2.984513020910 radians = 171 degrees
3.001966313430 radians = 172 degrees
3.019419605950 radians = 173 degrees
3.036872898470 radians = 174 degrees
3.054326190990 radians = 175 degrees
3.071779483510 radians = 176 degrees
3.089232776030 radians = 177 degrees
3.106686068550 radians = 178 degrees
3.124139361070 radians = 179 degrees
3.141592653590 radians = 180 degrees
3.159045946110 radians = 181 degrees
3.176499238630 radians = 182 degrees
3.193952531150 radians = 183 degrees
3.211405823670 radians = 184 degrees
3.228859116189 radians = 185 degrees
3.246312408709 radians = 186 degrees
3.263765701229 radians = 187 degrees
3.281218993749 radians = 188 degrees
3.298672286269 radians = 189 degrees
3.316125578789 radians = 190 degrees
3.333578871309 radians = 191 degrees
3.351032163829 radians = 192 degrees
3.368485456349 radians = 193 degrees
3.385938748869 radians = 194 degrees
3.403392041389 radians = 195 degrees
3.420845333909 radians = 196 degrees
3.438298626429 radians = 197 degrees
3.455751918949 radians = 198 degrees
3.473205211469 radians = 199 degrees
3.490658503989 radians = 200 degrees
3.508111796509 radians = 201 degrees
3.525565089029 radians = 202 degrees
3.543018381548 radians = 203 degrees
3.560471674068 radians = 204 degrees
3.577924966588 radians = 205 degrees
3.595378259108 radians = 206 degrees
3.612831551628 radians = 207 degrees
3.630284844148 radians = 208 degrees
3.647738136668 radians = 209 degrees
3.665191429188 radians = 210 degrees
3.682644721708 radians = 211 degrees
3.700098014228 radians = 212 degrees
3.717551306748 radians = 213 degrees
3.735004599268 radians = 214 degrees
3.752457891788 radians = 215 degrees
3.769911184308 radians = 216 degrees
3.787364476828 radians = 217 degrees
3.804817769348 radians = 218 degrees
3.822271061868 radians = 219 degrees
3.839724354388 radians = 220 degrees
3.857177646907 radians = 221 degrees
3.874630939427 radians = 222 degrees
3.892084231947 radians = 223 degrees
3.909537524467 radians = 224 degrees
3.926990816987 radians = 225 degrees
3.944444109507 radians = 226 degrees
3.961897402027 radians = 227 degrees
3.979350694547 radians = 228 degrees
3.996803987067 radians = 229 degrees
4.014257279587 radians = 230 degrees
4.031710572107 radians = 231 degrees
4.049163864627 radians = 232 degrees
4.066617157147 radians = 233 degrees
4.084070449667 radians = 234 degrees
4.101523742187 radians = 235 degrees
4.118977034707 radians = 236 degrees
4.136430327227 radians = 237 degrees
4.153883619746 radians = 238 degrees
4.171336912266 radians = 239 degrees
4.188790204786 radians = 240 degrees
4.206243497306 radians = 241 degrees
4.223696789826 radians = 242 degrees
4.241150082346 radians = 243 degrees
4.258603374866 radians = 244 degrees
4.276056667386 radians = 245 degrees
4.293509959906 radians = 246 degrees
4.310963252426 radians = 247 degrees
4.328416544946 radians = 248 degrees
4.345869837466 radians = 249 degrees
4.363323129986 radians = 250 degrees
4.380776422506 radians = 251 degrees
4.398229715026 radians = 252 degrees
4.415683007546 radians = 253 degrees
4.433136300066 radians = 254 degrees
4.450589592586 radians = 255 degrees
4.468042885105 radians = 256 degrees
4.485496177625 radians = 257 degrees
4.502949470145 radians = 258 degrees
4.520402762665 radians = 259 degrees
4.537856055185 radians = 260 degrees
4.555309347705 radians = 261 degrees
4.572762640225 radians = 262 degrees
4.590215932745 radians = 263 degrees
4.607669225265 radians = 264 degrees
4.625122517785 radians = 265 degrees
4.642575810305 radians = 266 degrees
4.660029102825 radians = 267 degrees
4.677482395345 radians = 268 degrees
4.694935687865 radians = 269 degrees
4.712388980385 radians = 270 degrees
4.729842272905 radians = 271 degrees
4.747295565425 radians = 272 degrees
4.764748857944 radians = 273 degrees
4.782202150464 radians = 274 degrees
4.799655442984 radians = 275 degrees
4.817108735504 radians = 276 degrees
4.834562028024 radians = 277 degrees
4.852015320544 radians = 278 degrees
4.869468613064 radians = 279 degrees
4.886921905584 radians = 280 degrees
4.904375198104 radians = 281 degrees
4.921828490624 radians = 282 degrees
4.939281783144 radians = 283 degrees
4.956735075664 radians = 284 degrees
4.974188368184 radians = 285 degrees
4.991641660704 radians = 286 degrees
5.009094953224 radians = 287 degrees
5.026548245744 radians = 288 degrees
5.044001538264 radians = 289 degrees
5.061454830784 radians = 290 degrees
5.078908123303 radians = 291 degrees
5.096361415823 radians = 292 degrees
5.113814708343 radians = 293 degrees
5.131268000863 radians = 294 degrees
5.148721293383 radians = 295 degrees
5.166174585903 radians = 296 degrees
5.183627878423 radians = 297 degrees
5.201081170943 radians = 298 degrees
5.218534463463 radians = 299 degrees
5.235987755983 radians = 300 degrees
5.253441048503 radians = 301 degrees
5.270894341023 radians = 302 degrees
5.288347633543 radians = 303 degrees
5.305800926063 radians = 304 degrees
5.323254218583 radians = 305 degrees
5.340707511103 radians = 306 degrees
5.358160803623 radians = 307 degrees
5.375614096142 radians = 308 degrees
5.393067388662 radians = 309 degrees
5.410520681182 radians = 310 degrees
5.427973973702 radians = 311 degrees
5.445427266222 radians = 312 degrees
5.462880558742 radians = 313 degrees
5.480333851262 radians = 314 degrees
5.497787143782 radians = 315 degrees
5.515240436302 radians = 316 degrees
5.532693728822 radians = 317 degrees
5.550147021342 radians = 318 degrees
5.567600313862 radians = 319 degrees
5.585053606382 radians = 320 degrees
5.602506898902 radians = 321 degrees
5.619960191422 radians = 322 degrees
5.637413483942 radians = 323 degrees
5.654866776462 radians = 324 degrees
5.672320068982 radians = 325 degrees
5.689773361501 radians = 326 degrees
5.707226654021 radians = 327 degrees
5.724679946541 radians = 328 degrees
5.742133239061 radians = 329 degrees
5.759586531581 radians = 330 degrees
5.777039824101 radians = 331 degrees
5.794493116621 radians = 332 degrees
5.811946409141 radians = 333 degrees
5.829399701661 radians = 334 degrees
5.846852994181 radians = 335 degrees
5.864306286701 radians = 336 degrees
5.881759579221 radians = 337 degrees
5.899212871741 radians = 338 degrees
5.916666164261 radians = 339 degrees
5.934119456781 radians = 340 degrees
5.951572749301 radians = 341 degrees
5.969026041821 radians = 342 degrees
5.986479334341 radians = 343 degrees
6.003932626860 radians = 344 degrees
6.021385919380 radians = 345 degrees
6.038839211900 radians = 346 degrees
6.056292504420 radians = 347 degrees
6.073745796940 radians = 348 degrees
6.091199089460 radians = 349 degrees
6.108652381980 radians = 350 degrees
6.126105674500 radians = 351 degrees
6.143558967020 radians = 352 degrees
6.161012259540 radians = 353 degrees
6.178465552060 radians = 354 degrees
6.195918844580 radians = 355 degrees
6.213372137100 radians = 356 degrees
6.230825429620 radians = 357 degrees
6.248278722140 radians = 358 degrees
6.265732014660 radians = 359 degrees
6.283185307180 radians = 360 degrees
gem5 Simulator System.  http://gem5.org
gem5 is copyrighted software; use the --copyright option for details.

gem5 compiled Nov  8 2018 11:09:10
gem5 started Nov 15 2018 14:52:27
gem5 executing on debian-virtual, pid 5223
command line: gem5/build/ALPHA/gem5.opt mygem5script.py --my-config=x2 --my-bpred=LocalBP -c automotive/basicmath/basicmath_small


Configuration:            x2
Branch predictor:         LocalBP
Ticks:                    44639067500
Clock domain:             500
Clock cycles:             89279803
Simulated instructions:   33426416
CPI:                      2.670936
Committed instructions:   33426416
Host seconds:             308.65
Misprediction ratio:      19.43300
BTB hits:                 3327174
